data_IRMOF10_SG202_interpen_Ligand1cp_label_f.

_audit_creation_method             'generated by an auxiliary program of Tobunporous'

_symmetry_space_group_name_H-M     'P 1'
_symmetry_Int_Tables_number        1
_symmetry_cell_setting             triclinic

_cell_length_a                    34.2800
_cell_length_b                    34.2800
_cell_length_c                    34.2800
_cell_angle_alpha                 90.0000
_cell_angle_beta                  90.0000
_cell_angle_gamma                 90.0000

loop_
_atom_site_label
_atom_site_fract_x
_atom_site_fract_y
_atom_site_fract_z
_atom_site_occupancy
O1       0.75000    0.75000    0.75000   1.00
Zn1      0.71720    0.78280    0.78280   1.00
Zn1      0.78280    0.71720    0.78280   1.00
Zn1      0.78280    0.78280    0.71720   1.00
Zn1      0.71720    0.71720    0.71720   1.00
O2       0.72650    0.77350    0.83820   1.00
O2       0.72650    0.83820    0.77350   1.00
O2       0.66180    0.77350    0.77350   1.00
O2       0.77350    0.72650    0.83820   1.00
O2       0.83820    0.72650    0.77350   1.00
O2       0.77350    0.66180    0.77350   1.00
O2       0.77350    0.83820    0.72650   1.00
O2       0.83820    0.77350    0.72650   1.00
O2       0.77350    0.77350    0.66180   1.00
O2       0.66180    0.72650    0.72650   1.00
O2       0.72650    0.66180    0.72650   1.00
O2       0.72650    0.72650    0.66180   1.00
C1       0.75000    0.75000    0.85520   1.00
C1       0.75000    0.85520    0.75000   1.00
C1       0.64480    0.75000    0.75000   1.00
C1       0.85520    0.75000    0.75000   1.00
C1       0.75000    0.64480    0.75000   1.00
C1       0.75000    0.75000    0.64480   1.00
O1       0.25000    0.25000    0.75000   1.00
Zn1      0.21720    0.28280    0.78280   1.00
Zn1      0.28280    0.21720    0.78280   1.00
Zn1      0.28280    0.28280    0.71720   1.00
Zn1      0.21720    0.21720    0.71720   1.00
O2       0.22650    0.27350    0.83820   1.00
O2       0.22650    0.33820    0.77350   1.00
O2       0.16180    0.27350    0.77350   1.00
O2       0.27350    0.22650    0.83820   1.00
O2       0.33820    0.22650    0.77350   1.00
O2       0.27350    0.16180    0.77350   1.00
O2       0.27350    0.33820    0.72650   1.00
O2       0.33820    0.27350    0.72650   1.00
O2       0.27350    0.27350    0.66180   1.00
O2       0.16180    0.22650    0.72650   1.00
O2       0.22650    0.16180    0.72650   1.00
O2       0.22650    0.22650    0.66180   1.00
C1       0.25000    0.25000    0.85520   1.00
C1       0.25000    0.35520    0.75000   1.00
C1       0.14480    0.25000    0.75000   1.00
C1       0.35520    0.25000    0.75000   1.00
C1       0.25000    0.14480    0.75000   1.00
C1       0.25000    0.25000    0.64480   1.00
O1       0.25000    0.75000    0.25000   1.00
Zn1      0.21720    0.78280    0.28280   1.00
Zn1      0.28280    0.71720    0.28280   1.00
Zn1      0.28280    0.78280    0.21720   1.00
Zn1      0.21720    0.71720    0.21720   1.00
O2       0.22650    0.77350    0.33820   1.00
O2       0.22650    0.83820    0.27350   1.00
O2       0.16180    0.77350    0.27350   1.00
O2       0.27350    0.72650    0.33820   1.00
O2       0.33820    0.72650    0.27350   1.00
O2       0.27350    0.66180    0.27350   1.00
O2       0.27350    0.83820    0.22650   1.00
O2       0.33820    0.77350    0.22650   1.00
O2       0.27350    0.77350    0.16180   1.00
O2       0.16180    0.72650    0.22650   1.00
O2       0.22650    0.66180    0.22650   1.00
O2       0.22650    0.72650    0.16180   1.00
C1       0.25000    0.75000    0.35520   1.00
C1       0.25000    0.85520    0.25000   1.00
C1       0.14480    0.75000    0.25000   1.00
C1       0.35520    0.75000    0.25000   1.00
C1       0.25000    0.64480    0.25000   1.00
C1       0.25000    0.75000    0.14480   1.00
O1       0.75000    0.25000    0.25000   1.00
Zn1      0.71720    0.28280    0.28280   1.00
Zn1      0.78280    0.21720    0.28280   1.00
Zn1      0.78280    0.28280    0.21720   1.00
Zn1      0.71720    0.21720    0.21720   1.00
O2       0.72650    0.27350    0.33820   1.00
O2       0.72650    0.33820    0.27350   1.00
O2       0.66180    0.27350    0.27350   1.00
O2       0.77350    0.22650    0.33820   1.00
O2       0.83820    0.22650    0.27350   1.00
O2       0.77350    0.16180    0.27350   1.00
O2       0.77350    0.33820    0.22650   1.00
O2       0.83820    0.27350    0.22650   1.00
O2       0.77350    0.27350    0.16180   1.00
O2       0.66180    0.22650    0.22650   1.00
O2       0.72650    0.16180    0.22650   1.00
O2       0.72650    0.22650    0.16180   1.00
C1       0.75000    0.25000    0.35520   1.00
C1       0.75000    0.35520    0.25000   1.00
C1       0.64480    0.25000    0.25000   1.00
C1       0.85520    0.25000    0.25000   1.00
C1       0.75000    0.14480    0.25000   1.00
C1       0.75000    0.25000    0.14480   1.00
O1       0.25000    0.25000    0.25000   1.00
Zn1      0.28280    0.21720    0.21720   1.00
Zn1      0.21720    0.28280    0.21720   1.00
Zn1      0.21720    0.21720    0.28280   1.00
Zn1      0.28280    0.28280    0.28280   1.00
O2       0.27350    0.22650    0.16180   1.00
O2       0.27350    0.16180    0.22650   1.00
O2       0.33820    0.22650    0.22650   1.00
O2       0.22650    0.27350    0.16180   1.00
O2       0.16180    0.27350    0.22650   1.00
O2       0.22650    0.33820    0.22650   1.00
O2       0.22650    0.16180    0.27350   1.00
O2       0.16180    0.22650    0.27350   1.00
O2       0.22650    0.22650    0.33820   1.00
O2       0.33820    0.27350    0.27350   1.00
O2       0.27350    0.33820    0.27350   1.00
O2       0.27350    0.27350    0.33820   1.00
C1       0.25000    0.25000    0.14480   1.00
C1       0.25000    0.14480    0.25000   1.00
C1       0.35520    0.25000    0.25000   1.00
C1       0.14480    0.25000    0.25000   1.00
C1       0.25000    0.35520    0.25000   1.00
C1       0.25000    0.25000    0.35520   1.00
O1       0.75000    0.75000    0.25000   1.00
Zn1      0.78280    0.71720    0.21720   1.00
Zn1      0.71720    0.78280    0.21720   1.00
Zn1      0.71720    0.71720    0.28280   1.00
Zn1      0.78280    0.78280    0.28280   1.00
O2       0.77350    0.72650    0.16180   1.00
O2       0.77350    0.66180    0.22650   1.00
O2       0.83820    0.72650    0.22650   1.00
O2       0.72650    0.77350    0.16180   1.00
O2       0.66180    0.77350    0.22650   1.00
O2       0.72650    0.83820    0.22650   1.00
O2       0.72650    0.66180    0.27350   1.00
O2       0.66180    0.72650    0.27350   1.00
O2       0.72650    0.72650    0.33820   1.00
O2       0.83820    0.77350    0.27350   1.00
O2       0.77350    0.83820    0.27350   1.00
O2       0.77350    0.77350    0.33820   1.00
C1       0.75000    0.75000    0.14480   1.00
C1       0.75000    0.64480    0.25000   1.00
C1       0.85520    0.75000    0.25000   1.00
C1       0.64480    0.75000    0.25000   1.00
C1       0.75000    0.85520    0.25000   1.00
C1       0.75000    0.75000    0.35520   1.00
O1       0.75000    0.25000    0.75000   1.00
Zn1      0.78280    0.21720    0.71720   1.00
Zn1      0.71720    0.28280    0.71720   1.00
Zn1      0.71720    0.21720    0.78280   1.00
Zn1      0.78280    0.28280    0.78280   1.00
O2       0.77350    0.22650    0.66180   1.00
O2       0.77350    0.16180    0.72650   1.00
O2       0.83820    0.22650    0.72650   1.00
O2       0.72650    0.27350    0.66180   1.00
O2       0.66180    0.27350    0.72650   1.00
O2       0.72650    0.33820    0.72650   1.00
O2       0.72650    0.16180    0.77350   1.00
O2       0.66180    0.22650    0.77350   1.00
O2       0.72650    0.22650    0.83820   1.00
O2       0.83820    0.27350    0.77350   1.00
O2       0.77350    0.33820    0.77350   1.00
O2       0.77350    0.27350    0.83820   1.00
C1       0.75000    0.25000    0.64480   1.00
C1       0.75000    0.14480    0.75000   1.00
C1       0.85520    0.25000    0.75000   1.00
C1       0.64480    0.25000    0.75000   1.00
C1       0.75000    0.35520    0.75000   1.00
C1       0.75000    0.25000    0.85520   1.00
O1       0.25000    0.75000    0.75000   1.00
Zn1      0.28280    0.71720    0.71720   1.00
Zn1      0.21720    0.78280    0.71720   1.00
Zn1      0.21720    0.71720    0.78280   1.00
Zn1      0.28280    0.78280    0.78280   1.00
O2       0.27350    0.72650    0.66180   1.00
O2       0.27350    0.66180    0.72650   1.00
O2       0.33820    0.72650    0.72650   1.00
O2       0.22650    0.77350    0.66180   1.00
O2       0.16180    0.77350    0.72650   1.00
O2       0.22650    0.83820    0.72650   1.00
O2       0.22650    0.66180    0.77350   1.00
O2       0.16180    0.72650    0.77350   1.00
O2       0.22650    0.72650    0.83820   1.00
O2       0.33820    0.77350    0.77350   1.00
O2       0.27350    0.83820    0.77350   1.00
O2       0.27350    0.77350    0.83820   1.00
C1       0.25000    0.75000    0.64480   1.00
C1       0.25000    0.64480    0.75000   1.00
C1       0.35520    0.75000    0.75000   1.00
C1       0.14480    0.75000    0.75000   1.00
C1       0.25000    0.85520    0.75000   1.00
C1       0.25000    0.75000    0.85520   1.00
O1       0.91500    0.91500    0.91500   1.00
Zn1      0.88220    0.94780    0.94780   1.00
Zn1      0.94780    0.88220    0.94780   1.00
Zn1      0.94780    0.94780    0.88220   1.00
Zn1      0.88220    0.88220    0.88220   1.00
O2       0.89150    0.93850    1.00320   1.00
O2       0.89150    1.00320    0.93850   1.00
O2       0.82680    0.93850    0.93850   1.00
O2       0.93850    0.89150    1.00320   1.00
O2       1.00320    0.89150    0.93850   1.00
O2       0.93850    0.82680    0.93850   1.00
O2       0.93850    1.00320    0.89150   1.00
O2       1.00320    0.93850    0.89150   1.00
O2       0.93850    0.93850    0.82680   1.00
O2       0.82680    0.89150    0.89150   1.00
O2       0.89150    0.82680    0.89150   1.00
O2       0.89150    0.89150    0.82680   1.00
C1       0.91500    0.91500    1.02020   1.00
C1       0.91500    1.02020    0.91500   1.00
C1       0.80980    0.91500    0.91500   1.00
C1       1.02020    0.91500    0.91500   1.00
C1       0.91500    0.80980    0.91500   1.00
C1       0.91500    0.91500    0.80980   1.00
O1       0.41500    0.41500    0.91500   1.00
Zn1      0.38220    0.44780    0.94780   1.00
Zn1      0.44780    0.38220    0.94780   1.00
Zn1      0.44780    0.44780    0.88220   1.00
Zn1      0.38220    0.38220    0.88220   1.00
O2       0.39150    0.43850    1.00320   1.00
O2       0.39150    0.50320    0.93850   1.00
O2       0.32680    0.43850    0.93850   1.00
O2       0.43850    0.39150    1.00320   1.00
O2       0.50320    0.39150    0.93850   1.00
O2       0.43850    0.32680    0.93850   1.00
O2       0.43850    0.50320    0.89150   1.00
O2       0.50320    0.43850    0.89150   1.00
O2       0.43850    0.43850    0.82680   1.00
O2       0.32680    0.39150    0.89150   1.00
O2       0.39150    0.32680    0.89150   1.00
O2       0.39150    0.39150    0.82680   1.00
C1       0.41500    0.41500    1.02020   1.00
C1       0.41500    0.52020    0.91500   1.00
C1       0.30980    0.41500    0.91500   1.00
C1       0.52020    0.41500    0.91500   1.00
C1       0.41500    0.30980    0.91500   1.00
C1       0.41500    0.41500    0.80980   1.00
O1       0.41500    0.91500    0.41500   1.00
Zn1      0.38220    0.94780    0.44780   1.00
Zn1      0.44780    0.88220    0.44780   1.00
Zn1      0.44780    0.94780    0.38220   1.00
Zn1      0.38220    0.88220    0.38220   1.00
O2       0.39150    0.93850    0.50320   1.00
O2       0.39150    1.00320    0.43850   1.00
O2       0.32680    0.93850    0.43850   1.00
O2       0.43850    0.89150    0.50320   1.00
O2       0.50320    0.89150    0.43850   1.00
O2       0.43850    0.82680    0.43850   1.00
O2       0.43850    1.00320    0.39150   1.00
O2       0.50320    0.93850    0.39150   1.00
O2       0.43850    0.93850    0.32680   1.00
O2       0.32680    0.89150    0.39150   1.00
O2       0.39150    0.82680    0.39150   1.00
O2       0.39150    0.89150    0.32680   1.00
C1       0.41500    0.91500    0.52020   1.00
C1       0.41500    1.02020    0.41500   1.00
C1       0.30980    0.91500    0.41500   1.00
C1       0.52020    0.91500    0.41500   1.00
C1       0.41500    0.80980    0.41500   1.00
C1       0.41500    0.91500    0.30980   1.00
O1       0.91500    0.41500    0.41500   1.00
Zn1      0.88220    0.44780    0.44780   1.00
Zn1      0.94780    0.38220    0.44780   1.00
Zn1      0.94780    0.44780    0.38220   1.00
Zn1      0.88220    0.38220    0.38220   1.00
O2       0.89150    0.43850    0.50320   1.00
O2       0.89150    0.50320    0.43850   1.00
O2       0.82680    0.43850    0.43850   1.00
O2       0.93850    0.39150    0.50320   1.00
O2       1.00320    0.39150    0.43850   1.00
O2       0.93850    0.32680    0.43850   1.00
O2       0.93850    0.50320    0.39150   1.00
O2       1.00320    0.43850    0.39150   1.00
O2       0.93850    0.43850    0.32680   1.00
O2       0.82680    0.39150    0.39150   1.00
O2       0.89150    0.32680    0.39150   1.00
O2       0.89150    0.39150    0.32680   1.00
C1       0.91500    0.41500    0.52020   1.00
C1       0.91500    0.52020    0.41500   1.00
C1       0.80980    0.41500    0.41500   1.00
C1       1.02020    0.41500    0.41500   1.00
C1       0.91500    0.30980    0.41500   1.00
C1       0.91500    0.41500    0.30980   1.00
O1       0.41500    0.41500    0.41500   1.00
Zn1      0.44780    0.38220    0.38220   1.00
Zn1      0.38220    0.44780    0.38220   1.00
Zn1      0.38220    0.38220    0.44780   1.00
Zn1      0.44780    0.44780    0.44780   1.00
O2       0.43850    0.39150    0.32680   1.00
O2       0.43850    0.32680    0.39150   1.00
O2       0.50320    0.39150    0.39150   1.00
O2       0.39150    0.43850    0.32680   1.00
O2       0.32680    0.43850    0.39150   1.00
O2       0.39150    0.50320    0.39150   1.00
O2       0.39150    0.32680    0.43850   1.00
O2       0.32680    0.39150    0.43850   1.00
O2       0.39150    0.39150    0.50320   1.00
O2       0.50320    0.43850    0.43850   1.00
O2       0.43850    0.50320    0.43850   1.00
O2       0.43850    0.43850    0.50320   1.00
C1       0.41500    0.41500    0.30980   1.00
C1       0.41500    0.30980    0.41500   1.00
C1       0.52020    0.41500    0.41500   1.00
C1       0.30980    0.41500    0.41500   1.00
C1       0.41500    0.52020    0.41500   1.00
C1       0.41500    0.41500    0.52020   1.00
O1       0.91500    0.91500    0.41500   1.00
Zn1      0.94780    0.88220    0.38220   1.00
Zn1      0.88220    0.94780    0.38220   1.00
Zn1      0.88220    0.88220    0.44780   1.00
Zn1      0.94780    0.94780    0.44780   1.00
O2       0.93850    0.89150    0.32680   1.00
O2       0.93850    0.82680    0.39150   1.00
O2       1.00320    0.89150    0.39150   1.00
O2       0.89150    0.93850    0.32680   1.00
O2       0.82680    0.93850    0.39150   1.00
O2       0.89150    1.00320    0.39150   1.00
O2       0.89150    0.82680    0.43850   1.00
O2       0.82680    0.89150    0.43850   1.00
O2       0.89150    0.89150    0.50320   1.00
O2       1.00320    0.93850    0.43850   1.00
O2       0.93850    1.00320    0.43850   1.00
O2       0.93850    0.93850    0.50320   1.00
C1       0.91500    0.91500    0.30980   1.00
C1       0.91500    0.80980    0.41500   1.00
C1       1.02020    0.91500    0.41500   1.00
C1       0.80980    0.91500    0.41500   1.00
C1       0.91500    1.02020    0.41500   1.00
C1       0.91500    0.91500    0.52020   1.00
O1       0.91500    0.41500    0.91500   1.00
Zn1      0.94780    0.38220    0.88220   1.00
Zn1      0.88220    0.44780    0.88220   1.00
Zn1      0.88220    0.38220    0.94780   1.00
Zn1      0.94780    0.44780    0.94780   1.00
O2       0.93850    0.39150    0.82680   1.00
O2       0.93850    0.32680    0.89150   1.00
O2       1.00320    0.39150    0.89150   1.00
O2       0.89150    0.43850    0.82680   1.00
O2       0.82680    0.43850    0.89150   1.00
O2       0.89150    0.50320    0.89150   1.00
O2       0.89150    0.32680    0.93850   1.00
O2       0.82680    0.39150    0.93850   1.00
O2       0.89150    0.39150    1.00320   1.00
O2       1.00320    0.43850    0.93850   1.00
O2       0.93850    0.50320    0.93850   1.00
O2       0.93850    0.43850    1.00320   1.00
C1       0.91500    0.41500    0.80980   1.00
C1       0.91500    0.30980    0.91500   1.00
C1       1.02020    0.41500    0.91500   1.00
C1       0.80980    0.41500    0.91500   1.00
C1       0.91500    0.52020    0.91500   1.00
C1       0.91500    0.41500    1.02020   1.00
O1       0.41500    0.91500    0.91500   1.00
Zn1      0.44780    0.88220    0.88220   1.00
Zn1      0.38220    0.94780    0.88220   1.00
Zn1      0.38220    0.88220    0.94780   1.00
Zn1      0.44780    0.94780    0.94780   1.00
O2       0.43850    0.89150    0.82680   1.00
O2       0.43850    0.82680    0.89150   1.00
O2       0.50320    0.89150    0.89150   1.00
O2       0.39150    0.93850    0.82680   1.00
O2       0.32680    0.93850    0.89150   1.00
O2       0.39150    1.00320    0.89150   1.00
O2       0.39150    0.82680    0.93850   1.00
O2       0.32680    0.89150    0.93850   1.00
O2       0.39150    0.89150    1.00320   1.00
O2       0.50320    0.93850    0.93850   1.00
O2       0.43850    1.00320    0.93850   1.00
O2       0.43850    0.93850    1.00320   1.00
C1       0.41500    0.91500    0.80980   1.00
C1       0.41500    0.80980    0.91500   1.00
C1       0.52020    0.91500    0.91500   1.00
C1       0.30980    0.91500    0.91500   1.00
C1       0.41500    1.02020    0.91500   1.00
C1       0.41500    0.91500    1.02020   1.00
C5       0.82724    0.85083    1.13227   1.00
H2       0.79995    0.85931    1.14755   1.00
H2       0.83321    0.87454    1.11099   1.00
C5       0.86091    0.84767    1.16219   1.00
H2       0.87318    0.87699    1.16890   1.00
H2       0.88454    0.82875    1.15040   1.00
O_3      0.81269    0.71721    0.98000   1.00
C4       0.74956    0.75008    1.02100   1.00
C3c      0.76518    0.78132    1.04243   1.00
H1       0.77745    0.80610    1.02725   1.00
C3d      0.73321    0.71832    1.04135   1.00
C3       0.76577    0.78092    1.08354   1.00
O2       0.77712    0.81446    1.10248   1.00
C3       0.73443    0.71750    1.08227   1.00
H1       0.72279    0.69190    1.09657   1.00
C2       0.75050    0.74865    1.10439   1.00
C5       0.81114    0.67605    0.97879   1.00
H2       0.81248    0.66459    0.94838   1.00
H2       0.78385    0.66494    0.99266   1.00
C5       0.84614    0.66063    1.00122   1.00
H2       0.84539    0.67296    1.03129   1.00
H2       0.87321    0.67160    0.98691   1.00
C5       0.84595    0.61589    1.00254   1.00
H2       0.84642    0.60338    0.97260   1.00
H2       0.81960    0.60494    1.01803   1.00
H2       0.87220    0.60514    1.01830   1.00
C5       0.68073    0.69080    1.01105   1.00
C5       0.81753    0.81292    1.11070   1.00
H2       0.67721    0.71598    0.99088   1.00
H2       0.66182    0.69560    1.03712   1.00
H2       0.83454    0.81102    1.08300   1.00
H2       0.82560    0.78708    1.12895   1.00
H2       0.85044    0.83540    1.19055   1.00
H2       0.63292    0.67981    0.94250   1.00
H2       0.60613    0.67229    0.98766   1.00
C2       0.75089    0.74759    0.89605   1.00
C3       0.71993    0.76607    0.91597   1.00
O2       0.68563    0.77470    0.89674   1.00
C3       0.78196    0.73188    0.91826   1.00
H1       0.80658    0.71845    0.90385   1.00
C3a      0.72015    0.76755    0.95713   1.00
H1       0.69518    0.77981    0.97202   1.00
C3b      0.78149    0.73229    0.95922   1.00
C4       0.75040    0.75014    0.97900   1.00
O_3      0.72016    0.68556    1.02167   1.00
C5       0.68433    0.81473    0.88720   1.00
H2       0.68613    0.83331    0.91391   1.00
C5       0.64534    0.82202    0.86666   1.00
H2       0.70875    0.82275    0.86726   1.00
H2       0.62208    0.82430    0.88923   1.00
H2       0.63855    0.79560    0.84899   1.00
C5       0.64579    0.85877    0.84069   1.00
H2       0.65562    0.88430    0.85811   1.00
H2       0.61615    0.86493    0.82891   1.00
H2       0.66547    0.85492    0.81494   1.00
C5       0.66748    0.65388    0.99020   1.00
H2       0.66457    0.63012    1.01218   1.00
H2       0.69092    0.64488    0.96955   1.00
C5       0.62888    0.65999    0.96803   1.00
H2       0.61806    0.63162    0.95666   1.00
C5       0.85083    1.13227    0.82724   1.00
H2       0.85931    1.14755    0.79995   1.00
H2       0.87454    1.11099    0.83321   1.00
C5       0.84767    1.16219    0.86091   1.00
H2       0.87699    1.16890    0.87318   1.00
H2       0.82875    1.15040    0.88454   1.00
O_3      0.71721    0.98000    0.81269   1.00
C4       0.75008    1.02100    0.74956   1.00
C3c      0.78132    1.04243    0.76518   1.00
H1       0.80610    1.02725    0.77745   1.00
C3d      0.71832    1.04135    0.73321   1.00
C3       0.78092    1.08354    0.76577   1.00
O2       0.81446    1.10248    0.77712   1.00
C3       0.71750    1.08227    0.73443   1.00
H1       0.69190    1.09657    0.72279   1.00
C2       0.74865    1.10439    0.75050   1.00
C5       0.67605    0.97879    0.81114   1.00
H2       0.66459    0.94838    0.81248   1.00
H2       0.66494    0.99266    0.78385   1.00
C5       0.66063    1.00122    0.84614   1.00
H2       0.67296    1.03129    0.84539   1.00
H2       0.67160    0.98691    0.87321   1.00
C5       0.61589    1.00254    0.84595   1.00
H2       0.60338    0.97260    0.84642   1.00
H2       0.60494    1.01803    0.81960   1.00
H2       0.60514    1.01830    0.87220   1.00
C5       0.69080    1.01105    0.68073   1.00
C5       0.81292    1.11070    0.81753   1.00
H2       0.71598    0.99088    0.67721   1.00
H2       0.69560    1.03712    0.66182   1.00
H2       0.81102    1.08300    0.83454   1.00
H2       0.78708    1.12895    0.82560   1.00
H2       0.83540    1.19055    0.85044   1.00
H2       0.67981    0.94250    0.63292   1.00
H2       0.67229    0.98766    0.60613   1.00
C2       0.74759    0.89605    0.75089   1.00
C3       0.76607    0.91597    0.71993   1.00
O2       0.77470    0.89674    0.68563   1.00
C3       0.73188    0.91826    0.78196   1.00
H1       0.71845    0.90385    0.80658   1.00
C3a      0.76755    0.95713    0.72015   1.00
H1       0.77981    0.97202    0.69518   1.00
C3b      0.73229    0.95922    0.78149   1.00
C4       0.75014    0.97900    0.75040   1.00
O_3      0.68556    1.02167    0.72016   1.00
C5       0.81473    0.88720    0.68433   1.00
H2       0.83331    0.91391    0.68613   1.00
C5       0.82202    0.86666    0.64534   1.00
H2       0.82275    0.86726    0.70875   1.00
H2       0.82430    0.88923    0.62208   1.00
H2       0.79560    0.84899    0.63855   1.00
C5       0.85877    0.84069    0.64579   1.00
H2       0.88430    0.85811    0.65562   1.00
H2       0.86493    0.82891    0.61615   1.00
H2       0.85492    0.81494    0.66547   1.00
C5       0.65388    0.99020    0.66748   1.00
H2       0.63012    1.01218    0.66457   1.00
H2       0.64488    0.96955    0.69092   1.00
C5       0.65999    0.96803    0.62888   1.00
H2       0.63162    0.95666    0.61806   1.00
C5       0.36773    0.82724    0.64917   1.00
H2       0.35245    0.79995    0.64069   1.00
H2       0.38901    0.83321    0.62546   1.00
C5       0.33781    0.86091    0.65233   1.00
H2       0.33110    0.87318    0.62301   1.00
H2       0.34960    0.88454    0.67125   1.00
O_3      0.52000    0.81269    0.78279   1.00
C4       0.47900    0.74956    0.74992   1.00
C3c      0.45757    0.76518    0.71868   1.00
H1       0.47275    0.77745    0.69390   1.00
C3d      0.45865    0.73321    0.78168   1.00
C3       0.41646    0.76577    0.71908   1.00
O2       0.39752    0.77712    0.68554   1.00
C3       0.41773    0.73443    0.78250   1.00
H1       0.40343    0.72279    0.80810   1.00
C2       0.39561    0.75050    0.75135   1.00
C5       0.52121    0.81114    0.82395   1.00
H2       0.55162    0.81248    0.83541   1.00
H2       0.50734    0.78385    0.83506   1.00
C5       0.49878    0.84614    0.83937   1.00
H2       0.46871    0.84539    0.82704   1.00
H2       0.51309    0.87321    0.82840   1.00
C5       0.49746    0.84595    0.88411   1.00
H2       0.52740    0.84642    0.89662   1.00
H2       0.48197    0.81960    0.89506   1.00
H2       0.48170    0.87220    0.89486   1.00
C5       0.48895    0.68073    0.80920   1.00
C5       0.38930    0.81753    0.68708   1.00
H2       0.50912    0.67721    0.78402   1.00
H2       0.46288    0.66182    0.80440   1.00
H2       0.41700    0.83454    0.68898   1.00
H2       0.37105    0.82560    0.71292   1.00
H2       0.30945    0.85044    0.66460   1.00
H2       0.55750    0.63292    0.82019   1.00
H2       0.51234    0.60613    0.82771   1.00
C2       0.60395    0.75089    0.75241   1.00
C3       0.58403    0.71993    0.73393   1.00
O2       0.60326    0.68563    0.72530   1.00
C3       0.58174    0.78196    0.76812   1.00
H1       0.59615    0.80658    0.78155   1.00
C3a      0.54287    0.72015    0.73245   1.00
H1       0.52798    0.69518    0.72019   1.00
C3b      0.54078    0.78149    0.76771   1.00
C4       0.52100    0.75040    0.74986   1.00
O_3      0.47833    0.72016    0.81444   1.00
C5       0.61280    0.68433    0.68527   1.00
H2       0.58609    0.68613    0.66669   1.00
C5       0.63334    0.64534    0.67798   1.00
H2       0.63274    0.70875    0.67725   1.00
H2       0.61077    0.62208    0.67570   1.00
H2       0.65101    0.63855    0.70440   1.00
C5       0.65931    0.64579    0.64123   1.00
H2       0.64189    0.65562    0.61570   1.00
H2       0.67109    0.61615    0.63507   1.00
H2       0.68506    0.66547    0.64508   1.00
C5       0.50980    0.66748    0.84612   1.00
H2       0.48782    0.66457    0.86988   1.00
H2       0.53045    0.69092    0.85512   1.00
C5       0.53197    0.62888    0.84001   1.00
H2       0.54334    0.61806    0.86838   1.00
C5       1.13227    0.82724    0.85083   1.00
H2       1.14755    0.79995    0.85931   1.00
H2       1.11099    0.83321    0.87454   1.00
C5       1.16219    0.86091    0.84767   1.00
H2       1.16890    0.87318    0.87699   1.00
H2       1.15040    0.88454    0.82875   1.00
O_3      0.98000    0.81269    0.71721   1.00
C4       1.02100    0.74956    0.75008   1.00
C3c      1.04243    0.76518    0.78132   1.00
H1       1.02725    0.77745    0.80610   1.00
C3d      1.04135    0.73321    0.71832   1.00
C3       1.08354    0.76577    0.78092   1.00
O2       1.10248    0.77712    0.81446   1.00
C3       1.08227    0.73443    0.71750   1.00
H1       1.09657    0.72279    0.69190   1.00
C2       1.10439    0.75050    0.74865   1.00
C5       0.97879    0.81114    0.67605   1.00
H2       0.94838    0.81248    0.66459   1.00
H2       0.99266    0.78385    0.66494   1.00
C5       1.00122    0.84614    0.66063   1.00
H2       1.03129    0.84539    0.67296   1.00
H2       0.98691    0.87321    0.67160   1.00
C5       1.00254    0.84595    0.61589   1.00
H2       0.97260    0.84642    0.60338   1.00
H2       1.01803    0.81960    0.60494   1.00
H2       1.01830    0.87220    0.60514   1.00
C5       1.01105    0.68073    0.69080   1.00
C5       1.11070    0.81753    0.81292   1.00
H2       0.99088    0.67721    0.71598   1.00
H2       1.03712    0.66182    0.69560   1.00
H2       1.08300    0.83454    0.81102   1.00
H2       1.12895    0.82560    0.78708   1.00
H2       1.19055    0.85044    0.83540   1.00
H2       0.94250    0.63292    0.67981   1.00
H2       0.98766    0.60613    0.67229   1.00
C2       0.89605    0.75089    0.74759   1.00
C3       0.91597    0.71993    0.76607   1.00
O2       0.89674    0.68563    0.77470   1.00
C3       0.91826    0.78196    0.73188   1.00
H1       0.90385    0.80658    0.71845   1.00
C3a      0.95713    0.72015    0.76755   1.00
H1       0.97202    0.69518    0.77981   1.00
C3b      0.95922    0.78149    0.73229   1.00
C4       0.97900    0.75040    0.75014   1.00
O_3      1.02167    0.72016    0.68556   1.00
C5       0.88720    0.68433    0.81473   1.00
H2       0.91391    0.68613    0.83331   1.00
C5       0.86666    0.64534    0.82202   1.00
H2       0.86726    0.70875    0.82275   1.00
H2       0.88923    0.62208    0.82430   1.00
H2       0.84899    0.63855    0.79560   1.00
C5       0.84069    0.64579    0.85877   1.00
H2       0.85811    0.65562    0.88430   1.00
H2       0.82891    0.61615    0.86493   1.00
H2       0.81494    0.66547    0.85492   1.00
C5       0.99020    0.66748    0.65388   1.00
H2       1.01218    0.66457    0.63012   1.00
H2       0.96955    0.69092    0.64488   1.00
C5       0.96803    0.62888    0.65999   1.00
H2       0.95666    0.61806    0.63162   1.00
C5       0.64917    0.36773    0.82724   1.00
H2       0.64069    0.35245    0.79995   1.00
H2       0.62546    0.38901    0.83321   1.00
C5       0.65233    0.33781    0.86091   1.00
H2       0.62301    0.33110    0.87318   1.00
H2       0.67125    0.34960    0.88454   1.00
O_3      0.78279    0.52000    0.81269   1.00
C4       0.74992    0.47900    0.74956   1.00
C3c      0.71868    0.45757    0.76518   1.00
H1       0.69390    0.47275    0.77745   1.00
C3d      0.78168    0.45865    0.73321   1.00
C3       0.71908    0.41646    0.76577   1.00
O2       0.68554    0.39752    0.77712   1.00
C3       0.78250    0.41773    0.73443   1.00
H1       0.80810    0.40343    0.72279   1.00
C2       0.75135    0.39561    0.75050   1.00
C5       0.82395    0.52121    0.81114   1.00
H2       0.83541    0.55162    0.81248   1.00
H2       0.83506    0.50734    0.78385   1.00
C5       0.83937    0.49878    0.84614   1.00
H2       0.82704    0.46871    0.84539   1.00
H2       0.82840    0.51309    0.87321   1.00
C5       0.88411    0.49746    0.84595   1.00
H2       0.89662    0.52740    0.84642   1.00
H2       0.89506    0.48197    0.81960   1.00
H2       0.89486    0.48170    0.87220   1.00
C5       0.80920    0.48895    0.68073   1.00
C5       0.68708    0.38930    0.81753   1.00
H2       0.78402    0.50912    0.67721   1.00
H2       0.80440    0.46288    0.66182   1.00
H2       0.68898    0.41700    0.83454   1.00
H2       0.71292    0.37105    0.82560   1.00
H2       0.66460    0.30945    0.85044   1.00
H2       0.82019    0.55750    0.63292   1.00
H2       0.82771    0.51234    0.60613   1.00
C2       0.75241    0.60395    0.75089   1.00
C3       0.73393    0.58403    0.71993   1.00
O2       0.72530    0.60326    0.68563   1.00
C3       0.76812    0.58174    0.78196   1.00
H1       0.78155    0.59615    0.80658   1.00
C3a      0.73245    0.54287    0.72015   1.00
H1       0.72019    0.52798    0.69518   1.00
C3b      0.76771    0.54078    0.78149   1.00
C4       0.74986    0.52100    0.75040   1.00
O_3      0.81444    0.47833    0.72016   1.00
C5       0.68527    0.61280    0.68433   1.00
H2       0.66669    0.58609    0.68613   1.00
C5       0.67798    0.63334    0.64534   1.00
H2       0.67725    0.63274    0.70875   1.00
H2       0.67570    0.61077    0.62208   1.00
H2       0.70440    0.65101    0.63855   1.00
C5       0.64123    0.65931    0.64579   1.00
H2       0.61570    0.64189    0.65562   1.00
H2       0.63507    0.67109    0.61615   1.00
H2       0.64508    0.68506    0.66547   1.00
C5       0.84612    0.50980    0.66748   1.00
H2       0.86988    0.48782    0.66457   1.00
H2       0.85512    0.53045    0.69092   1.00
C5       0.84001    0.53197    0.62888   1.00
H2       0.86838    0.54334    0.61806   1.00
C5       0.82724    0.64917    0.36773   1.00
H2       0.79995    0.64069    0.35245   1.00
H2       0.83321    0.62546    0.38901   1.00
C5       0.86091    0.65233    0.33781   1.00
H2       0.87318    0.62301    0.33110   1.00
H2       0.88454    0.67125    0.34960   1.00
O_3      0.81269    0.78279    0.52000   1.00
C4       0.74956    0.74992    0.47900   1.00
C3c      0.76518    0.71868    0.45757   1.00
H1       0.77745    0.69390    0.47275   1.00
C3d      0.73321    0.78168    0.45865   1.00
C3       0.76577    0.71908    0.41646   1.00
O2       0.77712    0.68554    0.39752   1.00
C3       0.73443    0.78250    0.41773   1.00
H1       0.72279    0.80810    0.40343   1.00
C2       0.75050    0.75135    0.39561   1.00
C5       0.81114    0.82395    0.52121   1.00
H2       0.81248    0.83541    0.55162   1.00
H2       0.78385    0.83506    0.50734   1.00
C5       0.84614    0.83937    0.49878   1.00
H2       0.84539    0.82704    0.46871   1.00
H2       0.87321    0.82840    0.51309   1.00
C5       0.84595    0.88411    0.49746   1.00
H2       0.84642    0.89662    0.52740   1.00
H2       0.81960    0.89506    0.48197   1.00
H2       0.87220    0.89486    0.48170   1.00
C5       0.68073    0.80920    0.48895   1.00
C5       0.81753    0.68708    0.38930   1.00
H2       0.67721    0.78402    0.50912   1.00
H2       0.66182    0.80440    0.46288   1.00
H2       0.83454    0.68898    0.41700   1.00
H2       0.82560    0.71292    0.37105   1.00
H2       0.85044    0.66460    0.30945   1.00
H2       0.63292    0.82019    0.55750   1.00
H2       0.60613    0.82771    0.51234   1.00
C2       0.75089    0.75241    0.60395   1.00
C3       0.71993    0.73393    0.58403   1.00
O2       0.68563    0.72530    0.60326   1.00
C3       0.78196    0.76812    0.58174   1.00
H1       0.80658    0.78155    0.59615   1.00
C3a      0.72015    0.73245    0.54287   1.00
H1       0.69518    0.72019    0.52798   1.00
C3b      0.78149    0.76771    0.54078   1.00
C4       0.75040    0.74986    0.52100   1.00
O_3      0.72016    0.81444    0.47833   1.00
C5       0.68433    0.68527    0.61280   1.00
H2       0.68613    0.66669    0.58609   1.00
C5       0.64534    0.67798    0.63334   1.00
H2       0.70875    0.67725    0.63274   1.00
H2       0.62208    0.67570    0.61077   1.00
H2       0.63855    0.70440    0.65101   1.00
C5       0.64579    0.64123    0.65931   1.00
H2       0.65562    0.61570    0.64189   1.00
H2       0.61615    0.63507    0.67109   1.00
H2       0.66547    0.64508    0.68506   1.00
C5       0.66748    0.84612    0.50980   1.00
H2       0.66457    0.86988    0.48782   1.00
H2       0.69092    0.85512    0.53045   1.00
C5       0.62888    0.84001    0.53197   1.00
H2       0.61806    0.86838    0.54334   1.00
C5       0.32724    0.35083    1.13227   1.00
H2       0.29995    0.35931    1.14755   1.00
H2       0.33321    0.37454    1.11099   1.00
C5       0.36091    0.34767    1.16219   1.00
H2       0.37318    0.37699    1.16890   1.00
H2       0.38454    0.32875    1.15040   1.00
O_3      0.31269    0.21721    0.98000   1.00
C4       0.24956    0.25008    1.02100   1.00
C3c      0.26518    0.28132    1.04243   1.00
H1       0.27745    0.30610    1.02725   1.00
C3d      0.23321    0.21832    1.04135   1.00
C3       0.26577    0.28092    1.08354   1.00
O2       0.27712    0.31446    1.10248   1.00
C3       0.23443    0.21750    1.08227   1.00
H1       0.22279    0.19190    1.09657   1.00
C2       0.25050    0.24865    1.10439   1.00
C5       0.31114    0.17605    0.97879   1.00
H2       0.31248    0.16459    0.94838   1.00
H2       0.28385    0.16494    0.99266   1.00
C5       0.34614    0.16063    1.00122   1.00
H2       0.34539    0.17296    1.03129   1.00
H2       0.37321    0.17160    0.98691   1.00
C5       0.34595    0.11589    1.00254   1.00
H2       0.34642    0.10338    0.97260   1.00
H2       0.31960    0.10494    1.01803   1.00
H2       0.37220    0.10514    1.01830   1.00
C5       0.18073    0.19080    1.01105   1.00
C5       0.31753    0.31292    1.11070   1.00
H2       0.17721    0.21598    0.99088   1.00
H2       0.16182    0.19560    1.03712   1.00
H2       0.33454    0.31102    1.08300   1.00
H2       0.32560    0.28708    1.12895   1.00
H2       0.35044    0.33540    1.19055   1.00
H2       0.13292    0.17981    0.94250   1.00
H2       0.10613    0.17229    0.98766   1.00
C2       0.25089    0.24759    0.89605   1.00
C3       0.21993    0.26607    0.91597   1.00
O2       0.18563    0.27470    0.89674   1.00
C3       0.28196    0.23188    0.91826   1.00
H1       0.30658    0.21845    0.90385   1.00
C3a      0.22015    0.26755    0.95713   1.00
H1       0.19518    0.27981    0.97202   1.00
C3b      0.28149    0.23229    0.95922   1.00
C4       0.25040    0.25014    0.97900   1.00
O_3      0.22016    0.18556    1.02167   1.00
C5       0.18433    0.31473    0.88720   1.00
H2       0.18613    0.33331    0.91391   1.00
C5       0.14534    0.32202    0.86666   1.00
H2       0.20875    0.32275    0.86726   1.00
H2       0.12208    0.32430    0.88923   1.00
H2       0.13855    0.29560    0.84899   1.00
C5       0.14579    0.35877    0.84069   1.00
H2       0.15562    0.38430    0.85811   1.00
H2       0.11615    0.36493    0.82891   1.00
H2       0.16547    0.35492    0.81494   1.00
C5       0.16748    0.15388    0.99020   1.00
H2       0.16457    0.13012    1.01218   1.00
H2       0.19092    0.14488    0.96955   1.00
C5       0.12888    0.15999    0.96803   1.00
H2       0.11806    0.13162    0.95666   1.00
C5       0.35083    0.63227    0.82724   1.00
H2       0.35931    0.64755    0.79995   1.00
H2       0.37454    0.61099    0.83321   1.00
C5       0.34767    0.66219    0.86091   1.00
H2       0.37699    0.66890    0.87318   1.00
H2       0.32875    0.65040    0.88454   1.00
O_3      0.21721    0.48000    0.81269   1.00
C4       0.25008    0.52100    0.74956   1.00
C3c      0.28132    0.54243    0.76518   1.00
H1       0.30610    0.52725    0.77745   1.00
C3d      0.21832    0.54135    0.73321   1.00
C3       0.28092    0.58354    0.76577   1.00
O2       0.31446    0.60248    0.77712   1.00
C3       0.21750    0.58227    0.73443   1.00
H1       0.19190    0.59657    0.72279   1.00
C2       0.24865    0.60439    0.75050   1.00
C5       0.17605    0.47879    0.81114   1.00
H2       0.16459    0.44838    0.81248   1.00
H2       0.16494    0.49266    0.78385   1.00
C5       0.16063    0.50122    0.84614   1.00
H2       0.17296    0.53129    0.84539   1.00
H2       0.17160    0.48691    0.87321   1.00
C5       0.11589    0.50254    0.84595   1.00
H2       0.10338    0.47260    0.84642   1.00
H2       0.10494    0.51803    0.81960   1.00
H2       0.10514    0.51830    0.87220   1.00
C5       0.19080    0.51105    0.68073   1.00
C5       0.31292    0.61070    0.81753   1.00
H2       0.21598    0.49088    0.67721   1.00
H2       0.19560    0.53712    0.66182   1.00
H2       0.31102    0.58300    0.83454   1.00
H2       0.28708    0.62895    0.82560   1.00
H2       0.33540    0.69055    0.85044   1.00
H2       0.17981    0.44250    0.63292   1.00
H2       0.17229    0.48766    0.60613   1.00
C2       0.24759    0.39605    0.75089   1.00
C3       0.26607    0.41597    0.71993   1.00
O2       0.27470    0.39674    0.68563   1.00
C3       0.23188    0.41826    0.78196   1.00
H1       0.21845    0.40385    0.80658   1.00
C3a      0.26755    0.45713    0.72015   1.00
H1       0.27981    0.47202    0.69518   1.00
C3b      0.23229    0.45922    0.78149   1.00
C4       0.25014    0.47900    0.75040   1.00
O_3      0.18556    0.52167    0.72016   1.00
C5       0.31473    0.38720    0.68433   1.00
H2       0.33331    0.41391    0.68613   1.00
C5       0.32202    0.36666    0.64534   1.00
H2       0.32275    0.36726    0.70875   1.00
H2       0.32430    0.38923    0.62208   1.00
H2       0.29560    0.34899    0.63855   1.00
C5       0.35877    0.34069    0.64579   1.00
H2       0.38430    0.35811    0.65562   1.00
H2       0.36493    0.32891    0.61615   1.00
H2       0.35492    0.31494    0.66547   1.00
C5       0.15388    0.49020    0.66748   1.00
H2       0.13012    0.51218    0.66457   1.00
H2       0.14488    0.46955    0.69092   1.00
C5       0.15999    0.46803    0.62888   1.00
H2       0.13162    0.45666    0.61806   1.00
C5       -0.13227   0.32724    0.64917   1.00
H2       -0.14755   0.29995    0.64069   1.00
H2       -0.11099   0.33321    0.62546   1.00
C5       -0.16219   0.36091    0.65233   1.00
H2       -0.16890   0.37318    0.62301   1.00
H2       -0.15040   0.38454    0.67125   1.00
O_3      0.02000    0.31269    0.78279   1.00
C4       -0.02100   0.24956    0.74992   1.00
C3c      -0.04243   0.26518    0.71868   1.00
H1       -0.02725   0.27745    0.69390   1.00
C3d      -0.04135   0.23321    0.78168   1.00
C3       -0.08354   0.26577    0.71908   1.00
O2       -0.10248   0.27712    0.68554   1.00
C3       -0.08227   0.23443    0.78250   1.00
H1       -0.09657   0.22279    0.80810   1.00
C2       -0.10439   0.25050    0.75135   1.00
C5       0.02121    0.31114    0.82395   1.00
H2       0.05162    0.31248    0.83541   1.00
H2       0.00734    0.28385    0.83506   1.00
C5       -0.00122   0.34614    0.83937   1.00
H2       -0.03129   0.34539    0.82704   1.00
H2       0.01309    0.37321    0.82840   1.00
C5       -0.00254   0.34595    0.88411   1.00
H2       0.02740    0.34642    0.89662   1.00
H2       -0.01803   0.31960    0.89506   1.00
H2       -0.01830   0.37220    0.89486   1.00
C5       -0.01105   0.18073    0.80920   1.00
C5       -0.11070   0.31753    0.68708   1.00
H2       0.00912    0.17721    0.78402   1.00
H2       -0.03712   0.16182    0.80440   1.00
H2       -0.08300   0.33454    0.68898   1.00
H2       -0.12895   0.32560    0.71292   1.00
H2       -0.19055   0.35044    0.66460   1.00
H2       0.05750    0.13292    0.82019   1.00
H2       0.01234    0.10613    0.82771   1.00
C2       0.10395    0.25089    0.75241   1.00
C3       0.08403    0.21993    0.73393   1.00
O2       0.10326    0.18563    0.72530   1.00
C3       0.08174    0.28196    0.76812   1.00
H1       0.09615    0.30658    0.78155   1.00
C3a      0.04287    0.22015    0.73245   1.00
H1       0.02798    0.19518    0.72019   1.00
C3b      0.04078    0.28149    0.76771   1.00
C4       0.02100    0.25040    0.74986   1.00
O_3      -0.02167   0.22016    0.81444   1.00
C5       0.11280    0.18433    0.68527   1.00
H2       0.08609    0.18613    0.66669   1.00
C5       0.13334    0.14534    0.67798   1.00
H2       0.13274    0.20875    0.67725   1.00
H2       0.11077    0.12208    0.67570   1.00
H2       0.15101    0.13855    0.70440   1.00
C5       0.15931    0.14579    0.64123   1.00
H2       0.14189    0.15562    0.61570   1.00
H2       0.17109    0.11615    0.63507   1.00
H2       0.18506    0.16547    0.64508   1.00
C5       0.00980    0.16748    0.84612   1.00
H2       -0.01218   0.16457    0.86988   1.00
H2       0.03045    0.19092    0.85512   1.00
C5       0.03197    0.12888    0.84001   1.00
H2       0.04334    0.11806    0.86838   1.00
C5       0.63227    0.32724    0.85083   1.00
H2       0.64755    0.29995    0.85931   1.00
H2       0.61099    0.33321    0.87454   1.00
C5       0.66219    0.36091    0.84767   1.00
H2       0.66890    0.37318    0.87699   1.00
H2       0.65040    0.38454    0.82875   1.00
O_3      0.48000    0.31269    0.71721   1.00
C4       0.52100    0.24956    0.75008   1.00
C3c      0.54243    0.26518    0.78132   1.00
H1       0.52725    0.27745    0.80610   1.00
C3d      0.54135    0.23321    0.71832   1.00
C3       0.58354    0.26577    0.78092   1.00
O2       0.60248    0.27712    0.81446   1.00
C3       0.58227    0.23443    0.71750   1.00
H1       0.59657    0.22279    0.69190   1.00
C2       0.60439    0.25050    0.74865   1.00
C5       0.47879    0.31114    0.67605   1.00
H2       0.44838    0.31248    0.66459   1.00
H2       0.49266    0.28385    0.66494   1.00
C5       0.50122    0.34614    0.66063   1.00
H2       0.53129    0.34539    0.67296   1.00
H2       0.48691    0.37321    0.67160   1.00
C5       0.50254    0.34595    0.61589   1.00
H2       0.47260    0.34642    0.60338   1.00
H2       0.51803    0.31960    0.60494   1.00
H2       0.51830    0.37220    0.60514   1.00
C5       0.51105    0.18073    0.69080   1.00
C5       0.61070    0.31753    0.81292   1.00
H2       0.49088    0.17721    0.71598   1.00
H2       0.53712    0.16182    0.69560   1.00
H2       0.58300    0.33454    0.81102   1.00
H2       0.62895    0.32560    0.78708   1.00
H2       0.69055    0.35044    0.83540   1.00
H2       0.44250    0.13292    0.67981   1.00
H2       0.48766    0.10613    0.67229   1.00
C2       0.39605    0.25089    0.74759   1.00
C3       0.41597    0.21993    0.76607   1.00
O2       0.39674    0.18563    0.77470   1.00
C3       0.41826    0.28196    0.73188   1.00
H1       0.40385    0.30658    0.71845   1.00
C3a      0.45713    0.22015    0.76755   1.00
H1       0.47202    0.19518    0.77981   1.00
C3b      0.45922    0.28149    0.73229   1.00
C4       0.47900    0.25040    0.75014   1.00
O_3      0.52167    0.22016    0.68556   1.00
C5       0.38720    0.18433    0.81473   1.00
H2       0.41391    0.18613    0.83331   1.00
C5       0.36666    0.14534    0.82202   1.00
H2       0.36726    0.20875    0.82275   1.00
H2       0.38923    0.12208    0.82430   1.00
H2       0.34899    0.13855    0.79560   1.00
C5       0.34069    0.14579    0.85877   1.00
H2       0.35811    0.15562    0.88430   1.00
H2       0.32891    0.11615    0.86493   1.00
H2       0.31494    0.16547    0.85492   1.00
C5       0.49020    0.16748    0.65388   1.00
H2       0.51218    0.16457    0.63012   1.00
H2       0.46955    0.19092    0.64488   1.00
C5       0.46803    0.12888    0.65999   1.00
H2       0.45666    0.11806    0.63162   1.00
C5       0.14917    -0.13227   0.82724   1.00
H2       0.14069    -0.14755   0.79995   1.00
H2       0.12546    -0.11099   0.83321   1.00
C5       0.15233    -0.16219   0.86091   1.00
H2       0.12301    -0.16890   0.87318   1.00
H2       0.17125    -0.15040   0.88454   1.00
O_3      0.28279    0.02000    0.81269   1.00
C4       0.24992    -0.02100   0.74956   1.00
C3c      0.21868    -0.04243   0.76518   1.00
H1       0.19390    -0.02725   0.77745   1.00
C3d      0.28168    -0.04135   0.73321   1.00
C3       0.21908    -0.08354   0.76577   1.00
O2       0.18554    -0.10248   0.77712   1.00
C3       0.28250    -0.08227   0.73443   1.00
H1       0.30810    -0.09657   0.72279   1.00
C2       0.25135    -0.10439   0.75050   1.00
C5       0.32395    0.02121    0.81114   1.00
H2       0.33541    0.05162    0.81248   1.00
H2       0.33506    0.00734    0.78385   1.00
C5       0.33937    -0.00122   0.84614   1.00
H2       0.32704    -0.03129   0.84539   1.00
H2       0.32840    0.01309    0.87321   1.00
C5       0.38411    -0.00254   0.84595   1.00
H2       0.39662    0.02740    0.84642   1.00
H2       0.39506    -0.01803   0.81960   1.00
H2       0.39486    -0.01830   0.87220   1.00
C5       0.30920    -0.01105   0.68073   1.00
C5       0.18708    -0.11070   0.81753   1.00
H2       0.28402    0.00912    0.67721   1.00
H2       0.30440    -0.03712   0.66182   1.00
H2       0.18898    -0.08300   0.83454   1.00
H2       0.21292    -0.12895   0.82560   1.00
H2       0.16460    -0.19055   0.85044   1.00
H2       0.32019    0.05750    0.63292   1.00
H2       0.32771    0.01234    0.60613   1.00
C2       0.25241    0.10395    0.75089   1.00
C3       0.23393    0.08403    0.71993   1.00
O2       0.22530    0.10326    0.68563   1.00
C3       0.26812    0.08174    0.78196   1.00
H1       0.28155    0.09615    0.80658   1.00
C3a      0.23245    0.04287    0.72015   1.00
H1       0.22019    0.02798    0.69518   1.00
C3b      0.26771    0.04078    0.78149   1.00
C4       0.24986    0.02100    0.75040   1.00
O_3      0.31444    -0.02167   0.72016   1.00
C5       0.18527    0.11280    0.68433   1.00
H2       0.16669    0.08609    0.68613   1.00
C5       0.17798    0.13334    0.64534   1.00
H2       0.17725    0.13274    0.70875   1.00
H2       0.17570    0.11077    0.62208   1.00
H2       0.20440    0.15101    0.63855   1.00
C5       0.14123    0.15931    0.64579   1.00
H2       0.11570    0.14189    0.65562   1.00
H2       0.13507    0.17109    0.61615   1.00
H2       0.14508    0.18506    0.66547   1.00
C5       0.34612    0.00980    0.66748   1.00
H2       0.36988    -0.01218   0.66457   1.00
H2       0.35512    0.03045    0.69092   1.00
C5       0.34001    0.03197    0.62888   1.00
H2       0.36838    0.04334    0.61806   1.00
C5       0.32724    0.14917    0.36773   1.00
H2       0.29995    0.14069    0.35245   1.00
H2       0.33321    0.12546    0.38901   1.00
C5       0.36091    0.15233    0.33781   1.00
H2       0.37318    0.12301    0.33110   1.00
H2       0.38454    0.17125    0.34960   1.00
O_3      0.31269    0.28279    0.52000   1.00
C4       0.24956    0.24992    0.47900   1.00
C3c      0.26518    0.21868    0.45757   1.00
H1       0.27745    0.19390    0.47275   1.00
C3d      0.23321    0.28168    0.45865   1.00
C3       0.26577    0.21908    0.41646   1.00
O2       0.27712    0.18554    0.39752   1.00
C3       0.23443    0.28250    0.41773   1.00
H1       0.22279    0.30810    0.40343   1.00
C2       0.25050    0.25135    0.39561   1.00
C5       0.31114    0.32395    0.52121   1.00
H2       0.31248    0.33541    0.55162   1.00
H2       0.28385    0.33506    0.50734   1.00
C5       0.34614    0.33937    0.49878   1.00
H2       0.34539    0.32704    0.46871   1.00
H2       0.37321    0.32840    0.51309   1.00
C5       0.34595    0.38411    0.49746   1.00
H2       0.34642    0.39662    0.52740   1.00
H2       0.31960    0.39506    0.48197   1.00
H2       0.37220    0.39486    0.48170   1.00
C5       0.18073    0.30920    0.48895   1.00
C5       0.31753    0.18708    0.38930   1.00
H2       0.17721    0.28402    0.50912   1.00
H2       0.16182    0.30440    0.46288   1.00
H2       0.33454    0.18898    0.41700   1.00
H2       0.32560    0.21292    0.37105   1.00
H2       0.35044    0.16460    0.30945   1.00
H2       0.13292    0.32019    0.55750   1.00
H2       0.10613    0.32771    0.51234   1.00
C2       0.25089    0.25241    0.60395   1.00
C3       0.21993    0.23393    0.58403   1.00
O2       0.18563    0.22530    0.60326   1.00
C3       0.28196    0.26812    0.58174   1.00
H1       0.30658    0.28155    0.59615   1.00
C3a      0.22015    0.23245    0.54287   1.00
H1       0.19518    0.22019    0.52798   1.00
C3b      0.28149    0.26771    0.54078   1.00
C4       0.25040    0.24986    0.52100   1.00
O_3      0.22016    0.31444    0.47833   1.00
C5       0.18433    0.18527    0.61280   1.00
H2       0.18613    0.16669    0.58609   1.00
C5       0.14534    0.17798    0.63334   1.00
H2       0.20875    0.17725    0.63274   1.00
H2       0.12208    0.17570    0.61077   1.00
H2       0.13855    0.20440    0.65101   1.00
C5       0.14579    0.14123    0.65931   1.00
H2       0.15562    0.11570    0.64189   1.00
H2       0.11615    0.13507    0.67109   1.00
H2       0.16547    0.14508    0.68506   1.00
C5       0.16748    0.34612    0.50980   1.00
H2       0.16457    0.36988    0.48782   1.00
H2       0.19092    0.35512    0.53045   1.00
C5       0.12888    0.34001    0.53197   1.00
H2       0.11806    0.36838    0.54334   1.00
C5       0.32724    0.85083    0.63227   1.00
H2       0.29995    0.85931    0.64755   1.00
H2       0.33321    0.87454    0.61099   1.00
C5       0.36091    0.84767    0.66219   1.00
H2       0.37318    0.87699    0.66890   1.00
H2       0.38454    0.82875    0.65040   1.00
O_3      0.31269    0.71721    0.48000   1.00
C4       0.24956    0.75008    0.52100   1.00
C3c      0.26518    0.78132    0.54243   1.00
H1       0.27745    0.80610    0.52725   1.00
C3d      0.23321    0.71832    0.54135   1.00
C3       0.26577    0.78092    0.58354   1.00
O2       0.27712    0.81446    0.60248   1.00
C3       0.23443    0.71750    0.58227   1.00
H1       0.22279    0.69190    0.59657   1.00
C2       0.25050    0.74865    0.60439   1.00
C5       0.31114    0.67605    0.47879   1.00
H2       0.31248    0.66459    0.44838   1.00
H2       0.28385    0.66494    0.49266   1.00
C5       0.34614    0.66063    0.50122   1.00
H2       0.34539    0.67296    0.53129   1.00
H2       0.37321    0.67160    0.48691   1.00
C5       0.34595    0.61589    0.50254   1.00
H2       0.34642    0.60338    0.47260   1.00
H2       0.31960    0.60494    0.51803   1.00
H2       0.37220    0.60514    0.51830   1.00
C5       0.18073    0.69080    0.51105   1.00
C5       0.31753    0.81292    0.61070   1.00
H2       0.17721    0.71598    0.49088   1.00
H2       0.16182    0.69560    0.53712   1.00
H2       0.33454    0.81102    0.58300   1.00
H2       0.32560    0.78708    0.62895   1.00
H2       0.35044    0.83540    0.69055   1.00
H2       0.13292    0.67981    0.44250   1.00
H2       0.10613    0.67229    0.48766   1.00
C2       0.25089    0.74759    0.39605   1.00
C3       0.21993    0.76607    0.41597   1.00
O2       0.18563    0.77470    0.39674   1.00
C3       0.28196    0.73188    0.41826   1.00
H1       0.30658    0.71845    0.40385   1.00
C3a      0.22015    0.76755    0.45713   1.00
H1       0.19518    0.77981    0.47202   1.00
C3b      0.28149    0.73229    0.45922   1.00
C4       0.25040    0.75014    0.47900   1.00
O_3      0.22016    0.68556    0.52167   1.00
C5       0.18433    0.81473    0.38720   1.00
H2       0.18613    0.83331    0.41391   1.00
C5       0.14534    0.82202    0.36666   1.00
H2       0.20875    0.82275    0.36726   1.00
H2       0.12208    0.82430    0.38923   1.00
H2       0.13855    0.79560    0.34899   1.00
C5       0.14579    0.85877    0.34069   1.00
H2       0.15562    0.88430    0.35811   1.00
H2       0.11615    0.86493    0.32891   1.00
H2       0.16547    0.85492    0.31494   1.00
C5       0.16748    0.65388    0.49020   1.00
H2       0.16457    0.63012    0.51218   1.00
H2       0.19092    0.64488    0.46955   1.00
C5       0.12888    0.65999    0.46803   1.00
H2       0.11806    0.63162    0.45666   1.00
C5       0.35083    1.13227    0.32724   1.00
H2       0.35931    1.14755    0.29995   1.00
H2       0.37454    1.11099    0.33321   1.00
C5       0.34767    1.16219    0.36091   1.00
H2       0.37699    1.16890    0.37318   1.00
H2       0.32875    1.15040    0.38454   1.00
O_3      0.21721    0.98000    0.31269   1.00
C4       0.25008    1.02100    0.24956   1.00
C3c      0.28132    1.04243    0.26518   1.00
H1       0.30610    1.02725    0.27745   1.00
C3d      0.21832    1.04135    0.23321   1.00
C3       0.28092    1.08354    0.26577   1.00
O2       0.31446    1.10248    0.27712   1.00
C3       0.21750    1.08227    0.23443   1.00
H1       0.19190    1.09657    0.22279   1.00
C2       0.24865    1.10439    0.25050   1.00
C5       0.17605    0.97879    0.31114   1.00
H2       0.16459    0.94838    0.31248   1.00
H2       0.16494    0.99266    0.28385   1.00
C5       0.16063    1.00122    0.34614   1.00
H2       0.17296    1.03129    0.34539   1.00
H2       0.17160    0.98691    0.37321   1.00
C5       0.11589    1.00254    0.34595   1.00
H2       0.10338    0.97260    0.34642   1.00
H2       0.10494    1.01803    0.31960   1.00
H2       0.10514    1.01830    0.37220   1.00
C5       0.19080    1.01105    0.18073   1.00
C5       0.31292    1.11070    0.31753   1.00
H2       0.21598    0.99088    0.17721   1.00
H2       0.19560    1.03712    0.16182   1.00
H2       0.31102    1.08300    0.33454   1.00
H2       0.28708    1.12895    0.32560   1.00
H2       0.33540    1.19055    0.35044   1.00
H2       0.17981    0.94250    0.13292   1.00
H2       0.17229    0.98766    0.10613   1.00
C2       0.24759    0.89605    0.25089   1.00
C3       0.26607    0.91597    0.21993   1.00
O2       0.27470    0.89674    0.18563   1.00
C3       0.23188    0.91826    0.28196   1.00
H1       0.21845    0.90385    0.30658   1.00
C3a      0.26755    0.95713    0.22015   1.00
H1       0.27981    0.97202    0.19518   1.00
C3b      0.23229    0.95922    0.28149   1.00
C4       0.25014    0.97900    0.25040   1.00
O_3      0.18556    1.02167    0.22016   1.00
C5       0.31473    0.88720    0.18433   1.00
H2       0.33331    0.91391    0.18613   1.00
C5       0.32202    0.86666    0.14534   1.00
H2       0.32275    0.86726    0.20875   1.00
H2       0.32430    0.88923    0.12208   1.00
H2       0.29560    0.84899    0.13855   1.00
C5       0.35877    0.84069    0.14579   1.00
H2       0.38430    0.85811    0.15562   1.00
H2       0.36493    0.82891    0.11615   1.00
H2       0.35492    0.81494    0.16547   1.00
C5       0.15388    0.99020    0.16748   1.00
H2       0.13012    1.01218    0.16457   1.00
H2       0.14488    0.96955    0.19092   1.00
C5       0.15999    0.96803    0.12888   1.00
H2       0.13162    0.95666    0.11806   1.00
C5       -0.13227   0.82724    0.14917   1.00
H2       -0.14755   0.79995    0.14069   1.00
H2       -0.11099   0.83321    0.12546   1.00
C5       -0.16219   0.86091    0.15233   1.00
H2       -0.16890   0.87318    0.12301   1.00
H2       -0.15040   0.88454    0.17125   1.00
O_3      0.02000    0.81269    0.28279   1.00
C4       -0.02100   0.74956    0.24992   1.00
C3c      -0.04243   0.76518    0.21868   1.00
H1       -0.02725   0.77745    0.19390   1.00
C3d      -0.04135   0.73321    0.28168   1.00
C3       -0.08354   0.76577    0.21908   1.00
O2       -0.10248   0.77712    0.18554   1.00
C3       -0.08227   0.73443    0.28250   1.00
H1       -0.09657   0.72279    0.30810   1.00
C2       -0.10439   0.75050    0.25135   1.00
C5       0.02121    0.81114    0.32395   1.00
H2       0.05162    0.81248    0.33541   1.00
H2       0.00734    0.78385    0.33506   1.00
C5       -0.00122   0.84614    0.33937   1.00
H2       -0.03129   0.84539    0.32704   1.00
H2       0.01309    0.87321    0.32840   1.00
C5       -0.00254   0.84595    0.38411   1.00
H2       0.02740    0.84642    0.39662   1.00
H2       -0.01803   0.81960    0.39506   1.00
H2       -0.01830   0.87220    0.39486   1.00
C5       -0.01105   0.68073    0.30920   1.00
C5       -0.11070   0.81753    0.18708   1.00
H2       0.00912    0.67721    0.28402   1.00
H2       -0.03712   0.66182    0.30440   1.00
H2       -0.08300   0.83454    0.18898   1.00
H2       -0.12895   0.82560    0.21292   1.00
H2       -0.19055   0.85044    0.16460   1.00
H2       0.05750    0.63292    0.32019   1.00
H2       0.01234    0.60613    0.32771   1.00
C2       0.10395    0.75089    0.25241   1.00
C3       0.08403    0.71993    0.23393   1.00
O2       0.10326    0.68563    0.22530   1.00
C3       0.08174    0.78196    0.26812   1.00
H1       0.09615    0.80658    0.28155   1.00
C3a      0.04287    0.72015    0.23245   1.00
H1       0.02798    0.69518    0.22019   1.00
C3b      0.04078    0.78149    0.26771   1.00
C4       0.02100    0.75040    0.24986   1.00
O_3      -0.02167   0.72016    0.31444   1.00
C5       0.11280    0.68433    0.18527   1.00
H2       0.08609    0.68613    0.16669   1.00
C5       0.13334    0.64534    0.17798   1.00
H2       0.13274    0.70875    0.17725   1.00
H2       0.11077    0.62208    0.17570   1.00
H2       0.15101    0.63855    0.20440   1.00
C5       0.15931    0.64579    0.14123   1.00
H2       0.14189    0.65562    0.11570   1.00
H2       0.17109    0.61615    0.13507   1.00
H2       0.18506    0.66547    0.14508   1.00
C5       0.00980    0.66748    0.34612   1.00
H2       -0.01218   0.66457    0.36988   1.00
H2       0.03045    0.69092    0.35512   1.00
C5       0.03197    0.62888    0.34001   1.00
H2       0.04334    0.61806    0.36838   1.00
C5       0.63227    0.82724    0.35083   1.00
H2       0.64755    0.79995    0.35931   1.00
H2       0.61099    0.83321    0.37454   1.00
C5       0.66219    0.86091    0.34767   1.00
H2       0.66890    0.87318    0.37699   1.00
H2       0.65040    0.88454    0.32875   1.00
O_3      0.48000    0.81269    0.21721   1.00
C4       0.52100    0.74956    0.25008   1.00
C3c      0.54243    0.76518    0.28132   1.00
H1       0.52725    0.77745    0.30610   1.00
C3d      0.54135    0.73321    0.21832   1.00
C3       0.58354    0.76577    0.28092   1.00
O2       0.60248    0.77712    0.31446   1.00
C3       0.58227    0.73443    0.21750   1.00
H1       0.59657    0.72279    0.19190   1.00
C2       0.60439    0.75050    0.24865   1.00
C5       0.47879    0.81114    0.17605   1.00
H2       0.44838    0.81248    0.16459   1.00
H2       0.49266    0.78385    0.16494   1.00
C5       0.50122    0.84614    0.16063   1.00
H2       0.53129    0.84539    0.17296   1.00
H2       0.48691    0.87321    0.17160   1.00
C5       0.50254    0.84595    0.11589   1.00
H2       0.47260    0.84642    0.10338   1.00
H2       0.51803    0.81960    0.10494   1.00
H2       0.51830    0.87220    0.10514   1.00
C5       0.51105    0.68073    0.19080   1.00
C5       0.61070    0.81753    0.31292   1.00
H2       0.49088    0.67721    0.21598   1.00
H2       0.53712    0.66182    0.19560   1.00
H2       0.58300    0.83454    0.31102   1.00
H2       0.62895    0.82560    0.28708   1.00
H2       0.69055    0.85044    0.33540   1.00
H2       0.44250    0.63292    0.17981   1.00
H2       0.48766    0.60613    0.17229   1.00
C2       0.39605    0.75089    0.24759   1.00
C3       0.41597    0.71993    0.26607   1.00
O2       0.39674    0.68563    0.27470   1.00
C3       0.41826    0.78196    0.23188   1.00
H1       0.40385    0.80658    0.21845   1.00
C3a      0.45713    0.72015    0.26755   1.00
H1       0.47202    0.69518    0.27981   1.00
C3b      0.45922    0.78149    0.23229   1.00
C4       0.47900    0.75040    0.25014   1.00
O_3      0.52167    0.72016    0.18556   1.00
C5       0.38720    0.68433    0.31473   1.00
H2       0.41391    0.68613    0.33331   1.00
C5       0.36666    0.64534    0.32202   1.00
H2       0.36726    0.70875    0.32275   1.00
H2       0.38923    0.62208    0.32430   1.00
H2       0.34899    0.63855    0.29560   1.00
C5       0.34069    0.64579    0.35877   1.00
H2       0.35811    0.65562    0.38430   1.00
H2       0.32891    0.61615    0.36493   1.00
H2       0.31494    0.66547    0.35492   1.00
C5       0.49020    0.66748    0.15388   1.00
H2       0.51218    0.66457    0.13012   1.00
H2       0.46955    0.69092    0.14488   1.00
C5       0.46803    0.62888    0.15999   1.00
H2       0.45666    0.61806    0.13162   1.00
C5       0.14917    0.36773    0.32724   1.00
H2       0.14069    0.35245    0.29995   1.00
H2       0.12546    0.38901    0.33321   1.00
C5       0.15233    0.33781    0.36091   1.00
H2       0.12301    0.33110    0.37318   1.00
H2       0.17125    0.34960    0.38454   1.00
O_3      0.28279    0.52000    0.31269   1.00
C4       0.24992    0.47900    0.24956   1.00
C3c      0.21868    0.45757    0.26518   1.00
H1       0.19390    0.47275    0.27745   1.00
C3d      0.28168    0.45865    0.23321   1.00
C3       0.21908    0.41646    0.26577   1.00
O2       0.18554    0.39752    0.27712   1.00
C3       0.28250    0.41773    0.23443   1.00
H1       0.30810    0.40343    0.22279   1.00
C2       0.25135    0.39561    0.25050   1.00
C5       0.32395    0.52121    0.31114   1.00
H2       0.33541    0.55162    0.31248   1.00
H2       0.33506    0.50734    0.28385   1.00
C5       0.33937    0.49878    0.34614   1.00
H2       0.32704    0.46871    0.34539   1.00
H2       0.32840    0.51309    0.37321   1.00
C5       0.38411    0.49746    0.34595   1.00
H2       0.39662    0.52740    0.34642   1.00
H2       0.39506    0.48197    0.31960   1.00
H2       0.39486    0.48170    0.37220   1.00
C5       0.30920    0.48895    0.18073   1.00
C5       0.18708    0.38930    0.31753   1.00
H2       0.28402    0.50912    0.17721   1.00
H2       0.30440    0.46288    0.16182   1.00
H2       0.18898    0.41700    0.33454   1.00
H2       0.21292    0.37105    0.32560   1.00
H2       0.16460    0.30945    0.35044   1.00
H2       0.32019    0.55750    0.13292   1.00
H2       0.32771    0.51234    0.10613   1.00
C2       0.25241    0.60395    0.25089   1.00
C3       0.23393    0.58403    0.21993   1.00
O2       0.22530    0.60326    0.18563   1.00
C3       0.26812    0.58174    0.28196   1.00
H1       0.28155    0.59615    0.30658   1.00
C3a      0.23245    0.54287    0.22015   1.00
H1       0.22019    0.52798    0.19518   1.00
C3b      0.26771    0.54078    0.28149   1.00
C4       0.24986    0.52100    0.25040   1.00
O_3      0.31444    0.47833    0.22016   1.00
C5       0.18527    0.61280    0.18433   1.00
H2       0.16669    0.58609    0.18613   1.00
C5       0.17798    0.63334    0.14534   1.00
H2       0.17725    0.63274    0.20875   1.00
H2       0.17570    0.61077    0.12208   1.00
H2       0.20440    0.65101    0.13855   1.00
C5       0.14123    0.65931    0.14579   1.00
H2       0.11570    0.64189    0.15562   1.00
H2       0.13507    0.67109    0.11615   1.00
H2       0.14508    0.68506    0.16547   1.00
C5       0.34612    0.50980    0.16748   1.00
H2       0.36988    0.48782    0.16457   1.00
H2       0.35512    0.53045    0.19092   1.00
C5       0.34001    0.53197    0.12888   1.00
H2       0.36838    0.54334    0.11806   1.00
C5       0.32724    0.64917    -0.13227   1.00
H2       0.29995    0.64069    -0.14755   1.00
H2       0.33321    0.62546    -0.11099   1.00
C5       0.36091    0.65233    -0.16219   1.00
H2       0.37318    0.62301    -0.16890   1.00
H2       0.38454    0.67125    -0.15040   1.00
O_3      0.31269    0.78279    0.02000   1.00
C4       0.24956    0.74992    -0.02100   1.00
C3c      0.26518    0.71868    -0.04243   1.00
H1       0.27745    0.69390    -0.02725   1.00
C3d      0.23321    0.78168    -0.04135   1.00
C3       0.26577    0.71908    -0.08354   1.00
O2       0.27712    0.68554    -0.10248   1.00
C3       0.23443    0.78250    -0.08227   1.00
H1       0.22279    0.80810    -0.09657   1.00
C2       0.25050    0.75135    -0.10439   1.00
C5       0.31114    0.82395    0.02121   1.00
H2       0.31248    0.83541    0.05162   1.00
H2       0.28385    0.83506    0.00734   1.00
C5       0.34614    0.83937    -0.00122   1.00
H2       0.34539    0.82704    -0.03129   1.00
H2       0.37321    0.82840    0.01309   1.00
C5       0.34595    0.88411    -0.00254   1.00
H2       0.34642    0.89662    0.02740   1.00
H2       0.31960    0.89506    -0.01803   1.00
H2       0.37220    0.89486    -0.01830   1.00
C5       0.18073    0.80920    -0.01105   1.00
C5       0.31753    0.68708    -0.11070   1.00
H2       0.17721    0.78402    0.00912   1.00
H2       0.16182    0.80440    -0.03712   1.00
H2       0.33454    0.68898    -0.08300   1.00
H2       0.32560    0.71292    -0.12895   1.00
H2       0.35044    0.66460    -0.19055   1.00
H2       0.13292    0.82019    0.05750   1.00
H2       0.10613    0.82771    0.01234   1.00
C2       0.25089    0.75241    0.10395   1.00
C3       0.21993    0.73393    0.08403   1.00
O2       0.18563    0.72530    0.10326   1.00
C3       0.28196    0.76812    0.08174   1.00
H1       0.30658    0.78155    0.09615   1.00
C3a      0.22015    0.73245    0.04287   1.00
H1       0.19518    0.72019    0.02798   1.00
C3b      0.28149    0.76771    0.04078   1.00
C4       0.25040    0.74986    0.02100   1.00
O_3      0.22016    0.81444    -0.02167   1.00
C5       0.18433    0.68527    0.11280   1.00
H2       0.18613    0.66669    0.08609   1.00
C5       0.14534    0.67798    0.13334   1.00
H2       0.20875    0.67725    0.13274   1.00
H2       0.12208    0.67570    0.11077   1.00
H2       0.13855    0.70440    0.15101   1.00
C5       0.14579    0.64123    0.15931   1.00
H2       0.15562    0.61570    0.14189   1.00
H2       0.11615    0.63507    0.17109   1.00
H2       0.16547    0.64508    0.18506   1.00
C5       0.16748    0.84612    0.00980   1.00
H2       0.16457    0.86988    -0.01218   1.00
H2       0.19092    0.85512    0.03045   1.00
C5       0.12888    0.84001    0.03197   1.00
H2       0.11806    0.86838    0.04334   1.00
C5       0.82724    0.35083    0.63227   1.00
H2       0.79995    0.35931    0.64755   1.00
H2       0.83321    0.37454    0.61099   1.00
C5       0.86091    0.34767    0.66219   1.00
H2       0.87318    0.37699    0.66890   1.00
H2       0.88454    0.32875    0.65040   1.00
O_3      0.81269    0.21721    0.48000   1.00
C4       0.74956    0.25008    0.52100   1.00
C3c      0.76518    0.28132    0.54243   1.00
H1       0.77745    0.30610    0.52725   1.00
C3d      0.73321    0.21832    0.54135   1.00
C3       0.76577    0.28092    0.58354   1.00
O2       0.77712    0.31446    0.60248   1.00
C3       0.73443    0.21750    0.58227   1.00
H1       0.72279    0.19190    0.59657   1.00
C2       0.75050    0.24865    0.60439   1.00
C5       0.81114    0.17605    0.47879   1.00
H2       0.81248    0.16459    0.44838   1.00
H2       0.78385    0.16494    0.49266   1.00
C5       0.84614    0.16063    0.50122   1.00
H2       0.84539    0.17296    0.53129   1.00
H2       0.87321    0.17160    0.48691   1.00
C5       0.84595    0.11589    0.50254   1.00
H2       0.84642    0.10338    0.47260   1.00
H2       0.81960    0.10494    0.51803   1.00
H2       0.87220    0.10514    0.51830   1.00
C5       0.68073    0.19080    0.51105   1.00
C5       0.81753    0.31292    0.61070   1.00
H2       0.67721    0.21598    0.49088   1.00
H2       0.66182    0.19560    0.53712   1.00
H2       0.83454    0.31102    0.58300   1.00
H2       0.82560    0.28708    0.62895   1.00
H2       0.85044    0.33540    0.69055   1.00
H2       0.63292    0.17981    0.44250   1.00
H2       0.60613    0.17229    0.48766   1.00
C2       0.75089    0.24759    0.39605   1.00
C3       0.71993    0.26607    0.41597   1.00
O2       0.68563    0.27470    0.39674   1.00
C3       0.78196    0.23188    0.41826   1.00
H1       0.80658    0.21845    0.40385   1.00
C3a      0.72015    0.26755    0.45713   1.00
H1       0.69518    0.27981    0.47202   1.00
C3b      0.78149    0.23229    0.45922   1.00
C4       0.75040    0.25014    0.47900   1.00
O_3      0.72016    0.18556    0.52167   1.00
C5       0.68433    0.31473    0.38720   1.00
H2       0.68613    0.33331    0.41391   1.00
C5       0.64534    0.32202    0.36666   1.00
H2       0.70875    0.32275    0.36726   1.00
H2       0.62208    0.32430    0.38923   1.00
H2       0.63855    0.29560    0.34899   1.00
C5       0.64579    0.35877    0.34069   1.00
H2       0.65562    0.38430    0.35811   1.00
H2       0.61615    0.36493    0.32891   1.00
H2       0.66547    0.35492    0.31494   1.00
C5       0.66748    0.15388    0.49020   1.00
H2       0.66457    0.13012    0.51218   1.00
H2       0.69092    0.14488    0.46955   1.00
C5       0.62888    0.15999    0.46803   1.00
H2       0.61806    0.13162    0.45666   1.00
C5       0.85083    0.63227    0.32724   1.00
H2       0.85931    0.64755    0.29995   1.00
H2       0.87454    0.61099    0.33321   1.00
C5       0.84767    0.66219    0.36091   1.00
H2       0.87699    0.66890    0.37318   1.00
H2       0.82875    0.65040    0.38454   1.00
O_3      0.71721    0.48000    0.31269   1.00
C4       0.75008    0.52100    0.24956   1.00
C3c      0.78132    0.54243    0.26518   1.00
H1       0.80610    0.52725    0.27745   1.00
C3d      0.71832    0.54135    0.23321   1.00
C3       0.78092    0.58354    0.26577   1.00
O2       0.81446    0.60248    0.27712   1.00
C3       0.71750    0.58227    0.23443   1.00
H1       0.69190    0.59657    0.22279   1.00
C2       0.74865    0.60439    0.25050   1.00
C5       0.67605    0.47879    0.31114   1.00
H2       0.66459    0.44838    0.31248   1.00
H2       0.66494    0.49266    0.28385   1.00
C5       0.66063    0.50122    0.34614   1.00
H2       0.67296    0.53129    0.34539   1.00
H2       0.67160    0.48691    0.37321   1.00
C5       0.61589    0.50254    0.34595   1.00
H2       0.60338    0.47260    0.34642   1.00
H2       0.60494    0.51803    0.31960   1.00
H2       0.60514    0.51830    0.37220   1.00
C5       0.69080    0.51105    0.18073   1.00
C5       0.81292    0.61070    0.31753   1.00
H2       0.71598    0.49088    0.17721   1.00
H2       0.69560    0.53712    0.16182   1.00
H2       0.81102    0.58300    0.33454   1.00
H2       0.78708    0.62895    0.32560   1.00
H2       0.83540    0.69055    0.35044   1.00
H2       0.67981    0.44250    0.13292   1.00
H2       0.67229    0.48766    0.10613   1.00
C2       0.74759    0.39605    0.25089   1.00
C3       0.76607    0.41597    0.21993   1.00
O2       0.77470    0.39674    0.18563   1.00
C3       0.73188    0.41826    0.28196   1.00
H1       0.71845    0.40385    0.30658   1.00
C3a      0.76755    0.45713    0.22015   1.00
H1       0.77981    0.47202    0.19518   1.00
C3b      0.73229    0.45922    0.28149   1.00
C4       0.75014    0.47900    0.25040   1.00
O_3      0.68556    0.52167    0.22016   1.00
C5       0.81473    0.38720    0.18433   1.00
H2       0.83331    0.41391    0.18613   1.00
C5       0.82202    0.36666    0.14534   1.00
H2       0.82275    0.36726    0.20875   1.00
H2       0.82430    0.38923    0.12208   1.00
H2       0.79560    0.34899    0.13855   1.00
C5       0.85877    0.34069    0.14579   1.00
H2       0.88430    0.35811    0.15562   1.00
H2       0.86493    0.32891    0.11615   1.00
H2       0.85492    0.31494    0.16547   1.00
C5       0.65388    0.49020    0.16748   1.00
H2       0.63012    0.51218    0.16457   1.00
H2       0.64488    0.46955    0.19092   1.00
C5       0.65999    0.46803    0.12888   1.00
H2       0.63162    0.45666    0.11806   1.00
C5       0.36773    0.32724    0.14917   1.00
H2       0.35245    0.29995    0.14069   1.00
H2       0.38901    0.33321    0.12546   1.00
C5       0.33781    0.36091    0.15233   1.00
H2       0.33110    0.37318    0.12301   1.00
H2       0.34960    0.38454    0.17125   1.00
O_3      0.52000    0.31269    0.28279   1.00
C4       0.47900    0.24956    0.24992   1.00
C3c      0.45757    0.26518    0.21868   1.00
H1       0.47275    0.27745    0.19390   1.00
C3d      0.45865    0.23321    0.28168   1.00
C3       0.41646    0.26577    0.21908   1.00
O2       0.39752    0.27712    0.18554   1.00
C3       0.41773    0.23443    0.28250   1.00
H1       0.40343    0.22279    0.30810   1.00
C2       0.39561    0.25050    0.25135   1.00
C5       0.52121    0.31114    0.32395   1.00
H2       0.55162    0.31248    0.33541   1.00
H2       0.50734    0.28385    0.33506   1.00
C5       0.49878    0.34614    0.33937   1.00
H2       0.46871    0.34539    0.32704   1.00
H2       0.51309    0.37321    0.32840   1.00
C5       0.49746    0.34595    0.38411   1.00
H2       0.52740    0.34642    0.39662   1.00
H2       0.48197    0.31960    0.39506   1.00
H2       0.48170    0.37220    0.39486   1.00
C5       0.48895    0.18073    0.30920   1.00
C5       0.38930    0.31753    0.18708   1.00
H2       0.50912    0.17721    0.28402   1.00
H2       0.46288    0.16182    0.30440   1.00
H2       0.41700    0.33454    0.18898   1.00
H2       0.37105    0.32560    0.21292   1.00
H2       0.30945    0.35044    0.16460   1.00
H2       0.55750    0.13292    0.32019   1.00
H2       0.51234    0.10613    0.32771   1.00
C2       0.60395    0.25089    0.25241   1.00
C3       0.58403    0.21993    0.23393   1.00
O2       0.60326    0.18563    0.22530   1.00
C3       0.58174    0.28196    0.26812   1.00
H1       0.59615    0.30658    0.28155   1.00
C3a      0.54287    0.22015    0.23245   1.00
H1       0.52798    0.19518    0.22019   1.00
C3b      0.54078    0.28149    0.26771   1.00
C4       0.52100    0.25040    0.24986   1.00
O_3      0.47833    0.22016    0.31444   1.00
C5       0.61280    0.18433    0.18527   1.00
H2       0.58609    0.18613    0.16669   1.00
C5       0.63334    0.14534    0.17798   1.00
H2       0.63274    0.20875    0.17725   1.00
H2       0.61077    0.12208    0.17570   1.00
H2       0.65101    0.13855    0.20440   1.00
C5       0.65931    0.14579    0.14123   1.00
H2       0.64189    0.15562    0.11570   1.00
H2       0.67109    0.11615    0.13507   1.00
H2       0.68506    0.16547    0.14508   1.00
C5       0.50980    0.16748    0.34612   1.00
H2       0.48782    0.16457    0.36988   1.00
H2       0.53045    0.19092    0.35512   1.00
C5       0.53197    0.12888    0.34001   1.00
H2       0.54334    0.11806    0.36838   1.00
C5       1.13227    0.32724    0.35083   1.00
H2       1.14755    0.29995    0.35931   1.00
H2       1.11099    0.33321    0.37454   1.00
C5       1.16219    0.36091    0.34767   1.00
H2       1.16890    0.37318    0.37699   1.00
H2       1.15040    0.38454    0.32875   1.00
O_3      0.98000    0.31269    0.21721   1.00
C4       1.02100    0.24956    0.25008   1.00
C3c      1.04243    0.26518    0.28132   1.00
H1       1.02725    0.27745    0.30610   1.00
C3d      1.04135    0.23321    0.21832   1.00
C3       1.08354    0.26577    0.28092   1.00
O2       1.10248    0.27712    0.31446   1.00
C3       1.08227    0.23443    0.21750   1.00
H1       1.09657    0.22279    0.19190   1.00
C2       1.10439    0.25050    0.24865   1.00
C5       0.97879    0.31114    0.17605   1.00
H2       0.94838    0.31248    0.16459   1.00
H2       0.99266    0.28385    0.16494   1.00
C5       1.00122    0.34614    0.16063   1.00
H2       1.03129    0.34539    0.17296   1.00
H2       0.98691    0.37321    0.17160   1.00
C5       1.00254    0.34595    0.11589   1.00
H2       0.97260    0.34642    0.10338   1.00
H2       1.01803    0.31960    0.10494   1.00
H2       1.01830    0.37220    0.10514   1.00
C5       1.01105    0.18073    0.19080   1.00
C5       1.11070    0.31753    0.31292   1.00
H2       0.99088    0.17721    0.21598   1.00
H2       1.03712    0.16182    0.19560   1.00
H2       1.08300    0.33454    0.31102   1.00
H2       1.12895    0.32560    0.28708   1.00
H2       1.19055    0.35044    0.33540   1.00
H2       0.94250    0.13292    0.17981   1.00
H2       0.98766    0.10613    0.17229   1.00
C2       0.89605    0.25089    0.24759   1.00
C3       0.91597    0.21993    0.26607   1.00
O2       0.89674    0.18563    0.27470   1.00
C3       0.91826    0.28196    0.23188   1.00
H1       0.90385    0.30658    0.21845   1.00
C3a      0.95713    0.22015    0.26755   1.00
H1       0.97202    0.19518    0.27981   1.00
C3b      0.95922    0.28149    0.23229   1.00
C4       0.97900    0.25040    0.25014   1.00
O_3      1.02167    0.22016    0.18556   1.00
C5       0.88720    0.18433    0.31473   1.00
H2       0.91391    0.18613    0.33331   1.00
C5       0.86666    0.14534    0.32202   1.00
H2       0.86726    0.20875    0.32275   1.00
H2       0.88923    0.12208    0.32430   1.00
H2       0.84899    0.13855    0.29560   1.00
C5       0.84069    0.14579    0.35877   1.00
H2       0.85811    0.15562    0.38430   1.00
H2       0.82891    0.11615    0.36493   1.00
H2       0.81494    0.16547    0.35492   1.00
C5       0.99020    0.16748    0.15388   1.00
H2       1.01218    0.16457    0.13012   1.00
H2       0.96955    0.19092    0.14488   1.00
C5       0.96803    0.12888    0.15999   1.00
H2       0.95666    0.11806    0.13162   1.00
C5       0.64917    -0.13227   0.32724   1.00
H2       0.64069    -0.14755   0.29995   1.00
H2       0.62546    -0.11099   0.33321   1.00
C5       0.65233    -0.16219   0.36091   1.00
H2       0.62301    -0.16890   0.37318   1.00
H2       0.67125    -0.15040   0.38454   1.00
O_3      0.78279    0.02000    0.31269   1.00
C4       0.74992    -0.02100   0.24956   1.00
C3c      0.71868    -0.04243   0.26518   1.00
H1       0.69390    -0.02725   0.27745   1.00
C3d      0.78168    -0.04135   0.23321   1.00
C3       0.71908    -0.08354   0.26577   1.00
O2       0.68554    -0.10248   0.27712   1.00
C3       0.78250    -0.08227   0.23443   1.00
H1       0.80810    -0.09657   0.22279   1.00
C2       0.75135    -0.10439   0.25050   1.00
C5       0.82395    0.02121    0.31114   1.00
H2       0.83541    0.05162    0.31248   1.00
H2       0.83506    0.00734    0.28385   1.00
C5       0.83937    -0.00122   0.34614   1.00
H2       0.82704    -0.03129   0.34539   1.00
H2       0.82840    0.01309    0.37321   1.00
C5       0.88411    -0.00254   0.34595   1.00
H2       0.89662    0.02740    0.34642   1.00
H2       0.89506    -0.01803   0.31960   1.00
H2       0.89486    -0.01830   0.37220   1.00
C5       0.80920    -0.01105   0.18073   1.00
C5       0.68708    -0.11070   0.31753   1.00
H2       0.78402    0.00912    0.17721   1.00
H2       0.80440    -0.03712   0.16182   1.00
H2       0.68898    -0.08300   0.33454   1.00
H2       0.71292    -0.12895   0.32560   1.00
H2       0.66460    -0.19055   0.35044   1.00
H2       0.82019    0.05750    0.13292   1.00
H2       0.82771    0.01234    0.10613   1.00
C2       0.75241    0.10395    0.25089   1.00
C3       0.73393    0.08403    0.21993   1.00
O2       0.72530    0.10326    0.18563   1.00
C3       0.76812    0.08174    0.28196   1.00
H1       0.78155    0.09615    0.30658   1.00
C3a      0.73245    0.04287    0.22015   1.00
H1       0.72019    0.02798    0.19518   1.00
C3b      0.76771    0.04078    0.28149   1.00
C4       0.74986    0.02100    0.25040   1.00
O_3      0.81444    -0.02167   0.22016   1.00
C5       0.68527    0.11280    0.18433   1.00
H2       0.66669    0.08609    0.18613   1.00
C5       0.67798    0.13334    0.14534   1.00
H2       0.67725    0.13274    0.20875   1.00
H2       0.67570    0.11077    0.12208   1.00
H2       0.70440    0.15101    0.13855   1.00
C5       0.64123    0.15931    0.14579   1.00
H2       0.61570    0.14189    0.15562   1.00
H2       0.63507    0.17109    0.11615   1.00
H2       0.64508    0.18506    0.16547   1.00
C5       0.84612    0.00980    0.16748   1.00
H2       0.86988    -0.01218   0.16457   1.00
H2       0.85512    0.03045    0.19092   1.00
C5       0.84001    0.03197    0.12888   1.00
H2       0.86838    0.04334    0.11806   1.00
C5       0.82724    0.14917    -0.13227   1.00
H2       0.79995    0.14069    -0.14755   1.00
H2       0.83321    0.12546    -0.11099   1.00
C5       0.86091    0.15233    -0.16219   1.00
H2       0.87318    0.12301    -0.16890   1.00
H2       0.88454    0.17125    -0.15040   1.00
O_3      0.81269    0.28279    0.02000   1.00
C4       0.74956    0.24992    -0.02100   1.00
C3c      0.76518    0.21868    -0.04243   1.00
H1       0.77745    0.19390    -0.02725   1.00
C3d      0.73321    0.28168    -0.04135   1.00
C3       0.76577    0.21908    -0.08354   1.00
O2       0.77712    0.18554    -0.10248   1.00
C3       0.73443    0.28250    -0.08227   1.00
H1       0.72279    0.30810    -0.09657   1.00
C2       0.75050    0.25135    -0.10439   1.00
C5       0.81114    0.32395    0.02121   1.00
H2       0.81248    0.33541    0.05162   1.00
H2       0.78385    0.33506    0.00734   1.00
C5       0.84614    0.33937    -0.00122   1.00
H2       0.84539    0.32704    -0.03129   1.00
H2       0.87321    0.32840    0.01309   1.00
C5       0.84595    0.38411    -0.00254   1.00
H2       0.84642    0.39662    0.02740   1.00
H2       0.81960    0.39506    -0.01803   1.00
H2       0.87220    0.39486    -0.01830   1.00
C5       0.68073    0.30920    -0.01105   1.00
C5       0.81753    0.18708    -0.11070   1.00
H2       0.67721    0.28402    0.00912   1.00
H2       0.66182    0.30440    -0.03712   1.00
H2       0.83454    0.18898    -0.08300   1.00
H2       0.82560    0.21292    -0.12895   1.00
H2       0.85044    0.16460    -0.19055   1.00
H2       0.63292    0.32019    0.05750   1.00
H2       0.60613    0.32771    0.01234   1.00
C2       0.75089    0.25241    0.10395   1.00
C3       0.71993    0.23393    0.08403   1.00
O2       0.68563    0.22530    0.10326   1.00
C3       0.78196    0.26812    0.08174   1.00
H1       0.80658    0.28155    0.09615   1.00
C3a      0.72015    0.23245    0.04287   1.00
H1       0.69518    0.22019    0.02798   1.00
C3b      0.78149    0.26771    0.04078   1.00
C4       0.75040    0.24986    0.02100   1.00
O_3      0.72016    0.31444    -0.02167   1.00
C5       0.68433    0.18527    0.11280   1.00
H2       0.68613    0.16669    0.08609   1.00
C5       0.64534    0.17798    0.13334   1.00
H2       0.70875    0.17725    0.13274   1.00
H2       0.62208    0.17570    0.11077   1.00
H2       0.63855    0.20440    0.15101   1.00
C5       0.64579    0.14123    0.15931   1.00
H2       0.65562    0.11570    0.14189   1.00
H2       0.61615    0.13507    0.17109   1.00
H2       0.66547    0.14508    0.18506   1.00
C5       0.66748    0.34612    0.00980   1.00
H2       0.66457    0.36988    -0.01218   1.00
H2       0.69092    0.35512    0.03045   1.00
C5       0.62888    0.34001    0.03197   1.00
H2       0.61806    0.36838    0.04334   1.00
C5       0.99224    1.01583    1.29727   1.00
H2       0.96495    1.02431    1.31255   1.00
H2       0.99821    1.03954    1.27599   1.00
C5       1.02591    1.01267    1.32719   1.00
H2       1.03818    1.04199    1.33390   1.00
H2       1.04954    0.99375    1.31540   1.00
O_3      0.97769    0.88221    1.14500   1.00
C4       0.91456    0.91508    1.18600   1.00
C3c      0.93018    0.94632    1.20743   1.00
H1       0.94245    0.97110    1.19225   1.00
C3d      0.89821    0.88332    1.20635   1.00
C3       0.93077    0.94592    1.24854   1.00
O2       0.94212    0.97946    1.26748   1.00
C3       0.89943    0.88250    1.24727   1.00
H1       0.88779    0.85690    1.26157   1.00
C2       0.91550    0.91365    1.26939   1.00
C5       0.97614    0.84105    1.14379   1.00
H2       0.97748    0.82959    1.11338   1.00
H2       0.94885    0.82994    1.15766   1.00
C5       1.01114    0.82563    1.16622   1.00
H2       1.01039    0.83796    1.19629   1.00
H2       1.03821    0.83660    1.15191   1.00
C5       1.01095    0.78089    1.16754   1.00
H2       1.01142    0.76838    1.13760   1.00
H2       0.98460    0.76994    1.18303   1.00
H2       1.03720    0.77014    1.18330   1.00
C5       0.84573    0.85580    1.17605   1.00
C5       0.98253    0.97792    1.27570   1.00
H2       0.84221    0.88098    1.15588   1.00
H2       0.82682    0.86060    1.20212   1.00
H2       0.99954    0.97602    1.24800   1.00
H2       0.99060    0.95208    1.29395   1.00
H2       1.01544    1.00040    1.35555   1.00
H2       0.79792    0.84481    1.10750   1.00
H2       0.77113    0.83729    1.15266   1.00
C2       0.91589    0.91259    1.06105   1.00
C3       0.88493    0.93107    1.08097   1.00
O2       0.85063    0.93970    1.06174   1.00
C3       0.94696    0.89688    1.08326   1.00
H1       0.97158    0.88345    1.06885   1.00
C3a      0.88515    0.93255    1.12213   1.00
H1       0.86018    0.94481    1.13702   1.00
C3b      0.94649    0.89729    1.12422   1.00
C4       0.91540    0.91514    1.14400   1.00
O_3      0.88516    0.85056    1.18667   1.00
C5       0.84933    0.97973    1.05220   1.00
H2       0.85113    0.99831    1.07891   1.00
C5       0.81034    0.98702    1.03166   1.00
H2       0.87375    0.98775    1.03226   1.00
H2       0.78708    0.98930    1.05423   1.00
H2       0.80355    0.96060    1.01399   1.00
C5       0.81079    1.02377    1.00569   1.00
H2       0.82062    1.04930    1.02311   1.00
H2       0.78115    1.02993    0.99391   1.00
H2       0.83047    1.01992    0.97994   1.00
C5       0.83248    0.81888    1.15520   1.00
H2       0.82957    0.79512    1.17718   1.00
H2       0.85592    0.80988    1.13455   1.00
C5       0.79388    0.82499    1.13303   1.00
H2       0.78306    0.79662    1.12166   1.00
C5       1.01583    1.29727    0.99224   1.00
H2       1.02431    1.31255    0.96495   1.00
H2       1.03954    1.27599    0.99821   1.00
C5       1.01267    1.32719    1.02591   1.00
H2       1.04199    1.33390    1.03818   1.00
H2       0.99375    1.31540    1.04954   1.00
O_3      0.88221    1.14500    0.97769   1.00
C4       0.91508    1.18600    0.91456   1.00
C3c      0.94632    1.20743    0.93018   1.00
H1       0.97110    1.19225    0.94245   1.00
C3d      0.88332    1.20635    0.89821   1.00
C3       0.94592    1.24854    0.93077   1.00
O2       0.97946    1.26748    0.94212   1.00
C3       0.88250    1.24727    0.89943   1.00
H1       0.85690    1.26157    0.88779   1.00
C2       0.91365    1.26939    0.91550   1.00
C5       0.84105    1.14379    0.97614   1.00
H2       0.82959    1.11338    0.97748   1.00
H2       0.82994    1.15766    0.94885   1.00
C5       0.82563    1.16622    1.01114   1.00
H2       0.83796    1.19629    1.01039   1.00
H2       0.83660    1.15191    1.03821   1.00
C5       0.78089    1.16754    1.01095   1.00
H2       0.76838    1.13760    1.01142   1.00
H2       0.76994    1.18303    0.98460   1.00
H2       0.77014    1.18330    1.03720   1.00
C5       0.85580    1.17605    0.84573   1.00
C5       0.97792    1.27570    0.98253   1.00
H2       0.88098    1.15588    0.84221   1.00
H2       0.86060    1.20212    0.82682   1.00
H2       0.97602    1.24800    0.99954   1.00
H2       0.95208    1.29395    0.99060   1.00
H2       1.00040    1.35555    1.01544   1.00
H2       0.84481    1.10750    0.79792   1.00
H2       0.83729    1.15266    0.77113   1.00
C2       0.91259    1.06105    0.91589   1.00
C3       0.93107    1.08097    0.88493   1.00
O2       0.93970    1.06174    0.85063   1.00
C3       0.89688    1.08326    0.94696   1.00
H1       0.88345    1.06885    0.97158   1.00
C3a      0.93255    1.12213    0.88515   1.00
H1       0.94481    1.13702    0.86018   1.00
C3b      0.89729    1.12422    0.94649   1.00
C4       0.91514    1.14400    0.91540   1.00
O_3      0.85056    1.18667    0.88516   1.00
C5       0.97973    1.05220    0.84933   1.00
H2       0.99831    1.07891    0.85113   1.00
C5       0.98702    1.03166    0.81034   1.00
H2       0.98775    1.03226    0.87375   1.00
H2       0.98930    1.05423    0.78708   1.00
H2       0.96060    1.01399    0.80355   1.00
C5       1.02377    1.00569    0.81079   1.00
H2       1.04930    1.02311    0.82062   1.00
H2       1.02993    0.99391    0.78115   1.00
H2       1.01992    0.97994    0.83047   1.00
C5       0.81888    1.15520    0.83248   1.00
H2       0.79512    1.17718    0.82957   1.00
H2       0.80988    1.13455    0.85592   1.00
C5       0.82499    1.13303    0.79388   1.00
H2       0.79662    1.12166    0.78306   1.00
C5       0.53273    0.99224    0.81417   1.00
H2       0.51745    0.96495    0.80569   1.00
H2       0.55401    0.99821    0.79046   1.00
C5       0.50281    1.02591    0.81733   1.00
H2       0.49610    1.03818    0.78801   1.00
H2       0.51460    1.04954    0.83625   1.00
O_3      0.68500    0.97769    0.94779   1.00
C4       0.64400    0.91456    0.91492   1.00
C3c      0.62257    0.93018    0.88368   1.00
H1       0.63775    0.94245    0.85890   1.00
C3d      0.62365    0.89821    0.94668   1.00
C3       0.58146    0.93077    0.88408   1.00
O2       0.56252    0.94212    0.85054   1.00
C3       0.58273    0.89943    0.94750   1.00
H1       0.56843    0.88779    0.97310   1.00
C2       0.56061    0.91550    0.91635   1.00
C5       0.68621    0.97614    0.98895   1.00
H2       0.71662    0.97748    1.00041   1.00
H2       0.67234    0.94885    1.00006   1.00
C5       0.66378    1.01114    1.00437   1.00
H2       0.63371    1.01039    0.99204   1.00
H2       0.67809    1.03821    0.99340   1.00
C5       0.66246    1.01095    1.04911   1.00
H2       0.69240    1.01142    1.06162   1.00
H2       0.64697    0.98460    1.06006   1.00
H2       0.64670    1.03720    1.05986   1.00
C5       0.65395    0.84573    0.97420   1.00
C5       0.55430    0.98253    0.85208   1.00
H2       0.67412    0.84221    0.94902   1.00
H2       0.62788    0.82682    0.96940   1.00
H2       0.58200    0.99954    0.85398   1.00
H2       0.53605    0.99060    0.87792   1.00
H2       0.47445    1.01544    0.82960   1.00
H2       0.72250    0.79792    0.98519   1.00
H2       0.67734    0.77113    0.99271   1.00
C2       0.76895    0.91589    0.91741   1.00
C3       0.74903    0.88493    0.89893   1.00
O2       0.76826    0.85063    0.89030   1.00
C3       0.74674    0.94696    0.93312   1.00
H1       0.76115    0.97158    0.94655   1.00
C3a      0.70787    0.88515    0.89745   1.00
H1       0.69298    0.86018    0.88519   1.00
C3b      0.70578    0.94649    0.93271   1.00
C4       0.68600    0.91540    0.91486   1.00
O_3      0.64333    0.88516    0.97944   1.00
C5       0.77780    0.84933    0.85027   1.00
H2       0.75109    0.85113    0.83169   1.00
C5       0.79834    0.81034    0.84298   1.00
H2       0.79774    0.87375    0.84225   1.00
H2       0.77577    0.78708    0.84070   1.00
H2       0.81601    0.80355    0.86940   1.00
C5       0.82431    0.81079    0.80623   1.00
H2       0.80689    0.82062    0.78070   1.00
H2       0.83609    0.78115    0.80007   1.00
H2       0.85006    0.83047    0.81008   1.00
C5       0.67480    0.83248    1.01112   1.00
H2       0.65282    0.82957    1.03488   1.00
H2       0.69545    0.85592    1.02012   1.00
C5       0.69697    0.79388    1.00501   1.00
H2       0.70834    0.78306    1.03338   1.00
C5       1.29727    0.99224    1.01583   1.00
H2       1.31255    0.96495    1.02431   1.00
H2       1.27599    0.99821    1.03954   1.00
C5       1.32719    1.02591    1.01267   1.00
H2       1.33390    1.03818    1.04199   1.00
H2       1.31540    1.04954    0.99375   1.00
O_3      1.14500    0.97769    0.88221   1.00
C4       1.18600    0.91456    0.91508   1.00
C3c      1.20743    0.93018    0.94632   1.00
H1       1.19225    0.94245    0.97110   1.00
C3d      1.20635    0.89821    0.88332   1.00
C3       1.24854    0.93077    0.94592   1.00
O2       1.26748    0.94212    0.97946   1.00
C3       1.24727    0.89943    0.88250   1.00
H1       1.26157    0.88779    0.85690   1.00
C2       1.26939    0.91550    0.91365   1.00
C5       1.14379    0.97614    0.84105   1.00
H2       1.11338    0.97748    0.82959   1.00
H2       1.15766    0.94885    0.82994   1.00
C5       1.16622    1.01114    0.82563   1.00
H2       1.19629    1.01039    0.83796   1.00
H2       1.15191    1.03821    0.83660   1.00
C5       1.16754    1.01095    0.78089   1.00
H2       1.13760    1.01142    0.76838   1.00
H2       1.18303    0.98460    0.76994   1.00
H2       1.18330    1.03720    0.77014   1.00
C5       1.17605    0.84573    0.85580   1.00
C5       1.27570    0.98253    0.97792   1.00
H2       1.15588    0.84221    0.88098   1.00
H2       1.20212    0.82682    0.86060   1.00
H2       1.24800    0.99954    0.97602   1.00
H2       1.29395    0.99060    0.95208   1.00
H2       1.35555    1.01544    1.00040   1.00
H2       1.10750    0.79792    0.84481   1.00
H2       1.15266    0.77113    0.83729   1.00
C2       1.06105    0.91589    0.91259   1.00
C3       1.08097    0.88493    0.93107   1.00
O2       1.06174    0.85063    0.93970   1.00
C3       1.08326    0.94696    0.89688   1.00
H1       1.06885    0.97158    0.88345   1.00
C3a      1.12213    0.88515    0.93255   1.00
H1       1.13702    0.86018    0.94481   1.00
C3b      1.12422    0.94649    0.89729   1.00
C4       1.14400    0.91540    0.91514   1.00
O_3      1.18667    0.88516    0.85056   1.00
C5       1.05220    0.84933    0.97973   1.00
H2       1.07891    0.85113    0.99831   1.00
C5       1.03166    0.81034    0.98702   1.00
H2       1.03226    0.87375    0.98775   1.00
H2       1.05423    0.78708    0.98930   1.00
H2       1.01399    0.80355    0.96060   1.00
C5       1.00569    0.81079    1.02377   1.00
H2       1.02311    0.82062    1.04930   1.00
H2       0.99391    0.78115    1.02993   1.00
H2       0.97994    0.83047    1.01992   1.00
C5       1.15520    0.83248    0.81888   1.00
H2       1.17718    0.82957    0.79512   1.00
H2       1.13455    0.85592    0.80988   1.00
C5       1.13303    0.79388    0.82499   1.00
H2       1.12166    0.78306    0.79662   1.00
C5       0.81417    0.53273    0.99224   1.00
H2       0.80569    0.51745    0.96495   1.00
H2       0.79046    0.55401    0.99821   1.00
C5       0.81733    0.50281    1.02591   1.00
H2       0.78801    0.49610    1.03818   1.00
H2       0.83625    0.51460    1.04954   1.00
O_3      0.94779    0.68500    0.97769   1.00
C4       0.91492    0.64400    0.91456   1.00
C3c      0.88368    0.62257    0.93018   1.00
H1       0.85890    0.63775    0.94245   1.00
C3d      0.94668    0.62365    0.89821   1.00
C3       0.88408    0.58146    0.93077   1.00
O2       0.85054    0.56252    0.94212   1.00
C3       0.94750    0.58273    0.89943   1.00
H1       0.97310    0.56843    0.88779   1.00
C2       0.91635    0.56061    0.91550   1.00
C5       0.98895    0.68621    0.97614   1.00
H2       1.00041    0.71662    0.97748   1.00
H2       1.00006    0.67234    0.94885   1.00
C5       1.00437    0.66378    1.01114   1.00
H2       0.99204    0.63371    1.01039   1.00
H2       0.99340    0.67809    1.03821   1.00
C5       1.04911    0.66246    1.01095   1.00
H2       1.06162    0.69240    1.01142   1.00
H2       1.06006    0.64697    0.98460   1.00
H2       1.05986    0.64670    1.03720   1.00
C5       0.97420    0.65395    0.84573   1.00
C5       0.85208    0.55430    0.98253   1.00
H2       0.94902    0.67412    0.84221   1.00
H2       0.96940    0.62788    0.82682   1.00
H2       0.85398    0.58200    0.99954   1.00
H2       0.87792    0.53605    0.99060   1.00
H2       0.82960    0.47445    1.01544   1.00
H2       0.98519    0.72250    0.79792   1.00
H2       0.99271    0.67734    0.77113   1.00
C2       0.91741    0.76895    0.91589   1.00
C3       0.89893    0.74903    0.88493   1.00
O2       0.89030    0.76826    0.85063   1.00
C3       0.93312    0.74674    0.94696   1.00
H1       0.94655    0.76115    0.97158   1.00
C3a      0.89745    0.70787    0.88515   1.00
H1       0.88519    0.69298    0.86018   1.00
C3b      0.93271    0.70578    0.94649   1.00
C4       0.91486    0.68600    0.91540   1.00
O_3      0.97944    0.64333    0.88516   1.00
C5       0.85027    0.77780    0.84933   1.00
H2       0.83169    0.75109    0.85113   1.00
C5       0.84298    0.79834    0.81034   1.00
H2       0.84225    0.79774    0.87375   1.00
H2       0.84070    0.77577    0.78708   1.00
H2       0.86940    0.81601    0.80355   1.00
C5       0.80623    0.82431    0.81079   1.00
H2       0.78070    0.80689    0.82062   1.00
H2       0.80007    0.83609    0.78115   1.00
H2       0.81008    0.85006    0.83047   1.00
C5       1.01112    0.67480    0.83248   1.00
H2       1.03488    0.65282    0.82957   1.00
H2       1.02012    0.69545    0.85592   1.00
C5       1.00501    0.69697    0.79388   1.00
H2       1.03338    0.70834    0.78306   1.00
C5       0.99224    0.81417    0.53273   1.00
H2       0.96495    0.80569    0.51745   1.00
H2       0.99821    0.79046    0.55401   1.00
C5       1.02591    0.81733    0.50281   1.00
H2       1.03818    0.78801    0.49610   1.00
H2       1.04954    0.83625    0.51460   1.00
O_3      0.97769    0.94779    0.68500   1.00
C4       0.91456    0.91492    0.64400   1.00
C3c      0.93018    0.88368    0.62257   1.00
H1       0.94245    0.85890    0.63775   1.00
C3d      0.89821    0.94668    0.62365   1.00
C3       0.93077    0.88408    0.58146   1.00
O2       0.94212    0.85054    0.56252   1.00
C3       0.89943    0.94750    0.58273   1.00
H1       0.88779    0.97310    0.56843   1.00
C2       0.91550    0.91635    0.56061   1.00
C5       0.97614    0.98895    0.68621   1.00
H2       0.97748    1.00041    0.71662   1.00
H2       0.94885    1.00006    0.67234   1.00
C5       1.01114    1.00437    0.66378   1.00
H2       1.01039    0.99204    0.63371   1.00
H2       1.03821    0.99340    0.67809   1.00
C5       1.01095    1.04911    0.66246   1.00
H2       1.01142    1.06162    0.69240   1.00
H2       0.98460    1.06006    0.64697   1.00
H2       1.03720    1.05986    0.64670   1.00
C5       0.84573    0.97420    0.65395   1.00
C5       0.98253    0.85208    0.55430   1.00
H2       0.84221    0.94902    0.67412   1.00
H2       0.82682    0.96940    0.62788   1.00
H2       0.99954    0.85398    0.58200   1.00
H2       0.99060    0.87792    0.53605   1.00
H2       1.01544    0.82960    0.47445   1.00
H2       0.79792    0.98519    0.72250   1.00
H2       0.77113    0.99271    0.67734   1.00
C2       0.91589    0.91741    0.76895   1.00
C3       0.88493    0.89893    0.74903   1.00
O2       0.85063    0.89030    0.76826   1.00
C3       0.94696    0.93312    0.74674   1.00
H1       0.97158    0.94655    0.76115   1.00
C3a      0.88515    0.89745    0.70787   1.00
H1       0.86018    0.88519    0.69298   1.00
C3b      0.94649    0.93271    0.70578   1.00
C4       0.91540    0.91486    0.68600   1.00
O_3      0.88516    0.97944    0.64333   1.00
C5       0.84933    0.85027    0.77780   1.00
H2       0.85113    0.83169    0.75109   1.00
C5       0.81034    0.84298    0.79834   1.00
H2       0.87375    0.84225    0.79774   1.00
H2       0.78708    0.84070    0.77577   1.00
H2       0.80355    0.86940    0.81601   1.00
C5       0.81079    0.80623    0.82431   1.00
H2       0.82062    0.78070    0.80689   1.00
H2       0.78115    0.80007    0.83609   1.00
H2       0.83047    0.81008    0.85006   1.00
C5       0.83248    1.01112    0.67480   1.00
H2       0.82957    1.03488    0.65282   1.00
H2       0.85592    1.02012    0.69545   1.00
C5       0.79388    1.00501    0.69697   1.00
H2       0.78306    1.03338    0.70834   1.00
C5       0.49224    0.51583    1.29727   1.00
H2       0.46495    0.52431    1.31255   1.00
H2       0.49821    0.53954    1.27599   1.00
C5       0.52591    0.51267    1.32719   1.00
H2       0.53818    0.54199    1.33390   1.00
H2       0.54954    0.49375    1.31540   1.00
O_3      0.47769    0.38221    1.14500   1.00
C4       0.41456    0.41508    1.18600   1.00
C3c      0.43018    0.44632    1.20743   1.00
H1       0.44245    0.47110    1.19225   1.00
C3d      0.39821    0.38332    1.20635   1.00
C3       0.43077    0.44592    1.24854   1.00
O2       0.44212    0.47946    1.26748   1.00
C3       0.39943    0.38250    1.24727   1.00
H1       0.38779    0.35690    1.26157   1.00
C2       0.41550    0.41365    1.26939   1.00
C5       0.47614    0.34105    1.14379   1.00
H2       0.47748    0.32959    1.11338   1.00
H2       0.44885    0.32994    1.15766   1.00
C5       0.51114    0.32563    1.16622   1.00
H2       0.51039    0.33796    1.19629   1.00
H2       0.53821    0.33660    1.15191   1.00
C5       0.51095    0.28089    1.16754   1.00
H2       0.51142    0.26838    1.13760   1.00
H2       0.48460    0.26994    1.18303   1.00
H2       0.53720    0.27014    1.18330   1.00
C5       0.34573    0.35580    1.17605   1.00
C5       0.48253    0.47792    1.27570   1.00
H2       0.34221    0.38098    1.15588   1.00
H2       0.32682    0.36060    1.20212   1.00
H2       0.49954    0.47602    1.24800   1.00
H2       0.49060    0.45208    1.29395   1.00
H2       0.51544    0.50040    1.35555   1.00
H2       0.29792    0.34481    1.10750   1.00
H2       0.27113    0.33729    1.15266   1.00
C2       0.41589    0.41259    1.06105   1.00
C3       0.38493    0.43107    1.08097   1.00
O2       0.35063    0.43970    1.06174   1.00
C3       0.44696    0.39688    1.08326   1.00
H1       0.47158    0.38345    1.06885   1.00
C3a      0.38515    0.43255    1.12213   1.00
H1       0.36018    0.44481    1.13702   1.00
C3b      0.44649    0.39729    1.12422   1.00
C4       0.41540    0.41514    1.14400   1.00
O_3      0.38516    0.35056    1.18667   1.00
C5       0.34933    0.47973    1.05220   1.00
H2       0.35113    0.49831    1.07891   1.00
C5       0.31034    0.48702    1.03166   1.00
H2       0.37375    0.48775    1.03226   1.00
H2       0.28708    0.48930    1.05423   1.00
H2       0.30355    0.46060    1.01399   1.00
C5       0.31079    0.52377    1.00569   1.00
H2       0.32062    0.54930    1.02311   1.00
H2       0.28115    0.52993    0.99391   1.00
H2       0.33047    0.51992    0.97994   1.00
C5       0.33248    0.31888    1.15520   1.00
H2       0.32957    0.29512    1.17718   1.00
H2       0.35592    0.30988    1.13455   1.00
C5       0.29388    0.32499    1.13303   1.00
H2       0.28306    0.29662    1.12166   1.00
C5       0.51583    0.79727    0.99224   1.00
H2       0.52431    0.81255    0.96495   1.00
H2       0.53954    0.77599    0.99821   1.00
C5       0.51267    0.82719    1.02591   1.00
H2       0.54199    0.83390    1.03818   1.00
H2       0.49375    0.81540    1.04954   1.00
O_3      0.38221    0.64500    0.97769   1.00
C4       0.41508    0.68600    0.91456   1.00
C3c      0.44632    0.70743    0.93018   1.00
H1       0.47110    0.69225    0.94245   1.00
C3d      0.38332    0.70635    0.89821   1.00
C3       0.44592    0.74854    0.93077   1.00
O2       0.47946    0.76748    0.94212   1.00
C3       0.38250    0.74727    0.89943   1.00
H1       0.35690    0.76157    0.88779   1.00
C2       0.41365    0.76939    0.91550   1.00
C5       0.34105    0.64379    0.97614   1.00
H2       0.32959    0.61338    0.97748   1.00
H2       0.32994    0.65766    0.94885   1.00
C5       0.32563    0.66622    1.01114   1.00
H2       0.33796    0.69629    1.01039   1.00
H2       0.33660    0.65191    1.03821   1.00
C5       0.28089    0.66754    1.01095   1.00
H2       0.26838    0.63760    1.01142   1.00
H2       0.26994    0.68303    0.98460   1.00
H2       0.27014    0.68330    1.03720   1.00
C5       0.35580    0.67605    0.84573   1.00
C5       0.47792    0.77570    0.98253   1.00
H2       0.38098    0.65588    0.84221   1.00
H2       0.36060    0.70212    0.82682   1.00
H2       0.47602    0.74800    0.99954   1.00
H2       0.45208    0.79395    0.99060   1.00
H2       0.50040    0.85555    1.01544   1.00
H2       0.34481    0.60750    0.79792   1.00
H2       0.33729    0.65266    0.77113   1.00
C2       0.41259    0.56105    0.91589   1.00
C3       0.43107    0.58097    0.88493   1.00
O2       0.43970    0.56174    0.85063   1.00
C3       0.39688    0.58326    0.94696   1.00
H1       0.38345    0.56885    0.97158   1.00
C3a      0.43255    0.62213    0.88515   1.00
H1       0.44481    0.63702    0.86018   1.00
C3b      0.39729    0.62422    0.94649   1.00
C4       0.41514    0.64400    0.91540   1.00
O_3      0.35056    0.68667    0.88516   1.00
C5       0.47973    0.55220    0.84933   1.00
H2       0.49831    0.57891    0.85113   1.00
C5       0.48702    0.53166    0.81034   1.00
H2       0.48775    0.53226    0.87375   1.00
H2       0.48930    0.55423    0.78708   1.00
H2       0.46060    0.51399    0.80355   1.00
C5       0.52377    0.50569    0.81079   1.00
H2       0.54930    0.52311    0.82062   1.00
H2       0.52993    0.49391    0.78115   1.00
H2       0.51992    0.47994    0.83047   1.00
C5       0.31888    0.65520    0.83248   1.00
H2       0.29512    0.67718    0.82957   1.00
H2       0.30988    0.63455    0.85592   1.00
C5       0.32499    0.63303    0.79388   1.00
H2       0.29662    0.62166    0.78306   1.00
C5       0.03273    0.49224    0.81417   1.00
H2       0.01745    0.46495    0.80569   1.00
H2       0.05401    0.49821    0.79046   1.00
C5       0.00281    0.52591    0.81733   1.00
H2       -0.00390   0.53818    0.78801   1.00
H2       0.01460    0.54954    0.83625   1.00
O_3      0.18500    0.47769    0.94779   1.00
C4       0.14400    0.41456    0.91492   1.00
C3c      0.12257    0.43018    0.88368   1.00
H1       0.13775    0.44245    0.85890   1.00
C3d      0.12365    0.39821    0.94668   1.00
C3       0.08146    0.43077    0.88408   1.00
O2       0.06252    0.44212    0.85054   1.00
C3       0.08273    0.39943    0.94750   1.00
H1       0.06843    0.38779    0.97310   1.00
C2       0.06061    0.41550    0.91635   1.00
C5       0.18621    0.47614    0.98895   1.00
H2       0.21662    0.47748    1.00041   1.00
H2       0.17234    0.44885    1.00006   1.00
C5       0.16378    0.51114    1.00437   1.00
H2       0.13371    0.51039    0.99204   1.00
H2       0.17809    0.53821    0.99340   1.00
C5       0.16246    0.51095    1.04911   1.00
H2       0.19240    0.51142    1.06162   1.00
H2       0.14697    0.48460    1.06006   1.00
H2       0.14670    0.53720    1.05986   1.00
C5       0.15395    0.34573    0.97420   1.00
C5       0.05430    0.48253    0.85208   1.00
H2       0.17412    0.34221    0.94902   1.00
H2       0.12788    0.32682    0.96940   1.00
H2       0.08200    0.49954    0.85398   1.00
H2       0.03605    0.49060    0.87792   1.00
H2       -0.02555   0.51544    0.82960   1.00
H2       0.22250    0.29792    0.98519   1.00
H2       0.17734    0.27113    0.99271   1.00
C2       0.26895    0.41589    0.91741   1.00
C3       0.24903    0.38493    0.89893   1.00
O2       0.26826    0.35063    0.89030   1.00
C3       0.24674    0.44696    0.93312   1.00
H1       0.26115    0.47158    0.94655   1.00
C3a      0.20787    0.38515    0.89745   1.00
H1       0.19298    0.36018    0.88519   1.00
C3b      0.20578    0.44649    0.93271   1.00
C4       0.18600    0.41540    0.91486   1.00
O_3      0.14333    0.38516    0.97944   1.00
C5       0.27780    0.34933    0.85027   1.00
H2       0.25109    0.35113    0.83169   1.00
C5       0.29834    0.31034    0.84298   1.00
H2       0.29774    0.37375    0.84225   1.00
H2       0.27577    0.28708    0.84070   1.00
H2       0.31601    0.30355    0.86940   1.00
C5       0.32431    0.31079    0.80623   1.00
H2       0.30689    0.32062    0.78070   1.00
H2       0.33609    0.28115    0.80007   1.00
H2       0.35006    0.33047    0.81008   1.00
C5       0.17480    0.33248    1.01112   1.00
H2       0.15282    0.32957    1.03488   1.00
H2       0.19545    0.35592    1.02012   1.00
C5       0.19697    0.29388    1.00501   1.00
H2       0.20834    0.28306    1.03338   1.00
C5       0.79727    0.49224    1.01583   1.00
H2       0.81255    0.46495    1.02431   1.00
H2       0.77599    0.49821    1.03954   1.00
C5       0.82719    0.52591    1.01267   1.00
H2       0.83390    0.53818    1.04199   1.00
H2       0.81540    0.54954    0.99375   1.00
O_3      0.64500    0.47769    0.88221   1.00
C4       0.68600    0.41456    0.91508   1.00
C3c      0.70743    0.43018    0.94632   1.00
H1       0.69225    0.44245    0.97110   1.00
C3d      0.70635    0.39821    0.88332   1.00
C3       0.74854    0.43077    0.94592   1.00
O2       0.76748    0.44212    0.97946   1.00
C3       0.74727    0.39943    0.88250   1.00
H1       0.76157    0.38779    0.85690   1.00
C2       0.76939    0.41550    0.91365   1.00
C5       0.64379    0.47614    0.84105   1.00
H2       0.61338    0.47748    0.82959   1.00
H2       0.65766    0.44885    0.82994   1.00
C5       0.66622    0.51114    0.82563   1.00
H2       0.69629    0.51039    0.83796   1.00
H2       0.65191    0.53821    0.83660   1.00
C5       0.66754    0.51095    0.78089   1.00
H2       0.63760    0.51142    0.76838   1.00
H2       0.68303    0.48460    0.76994   1.00
H2       0.68330    0.53720    0.77014   1.00
C5       0.67605    0.34573    0.85580   1.00
C5       0.77570    0.48253    0.97792   1.00
H2       0.65588    0.34221    0.88098   1.00
H2       0.70212    0.32682    0.86060   1.00
H2       0.74800    0.49954    0.97602   1.00
H2       0.79395    0.49060    0.95208   1.00
H2       0.85555    0.51544    1.00040   1.00
H2       0.60750    0.29792    0.84481   1.00
H2       0.65266    0.27113    0.83729   1.00
C2       0.56105    0.41589    0.91259   1.00
C3       0.58097    0.38493    0.93107   1.00
O2       0.56174    0.35063    0.93970   1.00
C3       0.58326    0.44696    0.89688   1.00
H1       0.56885    0.47158    0.88345   1.00
C3a      0.62213    0.38515    0.93255   1.00
H1       0.63702    0.36018    0.94481   1.00
C3b      0.62422    0.44649    0.89729   1.00
C4       0.64400    0.41540    0.91514   1.00
O_3      0.68667    0.38516    0.85056   1.00
C5       0.55220    0.34933    0.97973   1.00
H2       0.57891    0.35113    0.99831   1.00
C5       0.53166    0.31034    0.98702   1.00
H2       0.53226    0.37375    0.98775   1.00
H2       0.55423    0.28708    0.98930   1.00
H2       0.51399    0.30355    0.96060   1.00
C5       0.50569    0.31079    1.02377   1.00
H2       0.52311    0.32062    1.04930   1.00
H2       0.49391    0.28115    1.02993   1.00
H2       0.47994    0.33047    1.01992   1.00
C5       0.65520    0.33248    0.81888   1.00
H2       0.67718    0.32957    0.79512   1.00
H2       0.63455    0.35592    0.80988   1.00
C5       0.63303    0.29388    0.82499   1.00
H2       0.62166    0.28306    0.79662   1.00
C5       0.31417    0.03273    0.99224   1.00
H2       0.30569    0.01745    0.96495   1.00
H2       0.29046    0.05401    0.99821   1.00
C5       0.31733    0.00281    1.02591   1.00
H2       0.28801    -0.00390   1.03818   1.00
H2       0.33625    0.01460    1.04954   1.00
O_3      0.44779    0.18500    0.97769   1.00
C4       0.41492    0.14400    0.91456   1.00
C3c      0.38368    0.12257    0.93018   1.00
H1       0.35890    0.13775    0.94245   1.00
C3d      0.44668    0.12365    0.89821   1.00
C3       0.38408    0.08146    0.93077   1.00
O2       0.35054    0.06252    0.94212   1.00
C3       0.44750    0.08273    0.89943   1.00
H1       0.47310    0.06843    0.88779   1.00
C2       0.41635    0.06061    0.91550   1.00
C5       0.48895    0.18621    0.97614   1.00
H2       0.50041    0.21662    0.97748   1.00
H2       0.50006    0.17234    0.94885   1.00
C5       0.50437    0.16378    1.01114   1.00
H2       0.49204    0.13371    1.01039   1.00
H2       0.49340    0.17809    1.03821   1.00
C5       0.54911    0.16246    1.01095   1.00
H2       0.56162    0.19240    1.01142   1.00
H2       0.56006    0.14697    0.98460   1.00
H2       0.55986    0.14670    1.03720   1.00
C5       0.47420    0.15395    0.84573   1.00
C5       0.35208    0.05430    0.98253   1.00
H2       0.44902    0.17412    0.84221   1.00
H2       0.46940    0.12788    0.82682   1.00
H2       0.35398    0.08200    0.99954   1.00
H2       0.37792    0.03605    0.99060   1.00
H2       0.32960    -0.02555   1.01544   1.00
H2       0.48519    0.22250    0.79792   1.00
H2       0.49271    0.17734    0.77113   1.00
C2       0.41741    0.26895    0.91589   1.00
C3       0.39893    0.24903    0.88493   1.00
O2       0.39030    0.26826    0.85063   1.00
C3       0.43312    0.24674    0.94696   1.00
H1       0.44655    0.26115    0.97158   1.00
C3a      0.39745    0.20787    0.88515   1.00
H1       0.38519    0.19298    0.86018   1.00
C3b      0.43271    0.20578    0.94649   1.00
C4       0.41486    0.18600    0.91540   1.00
O_3      0.47944    0.14333    0.88516   1.00
C5       0.35027    0.27780    0.84933   1.00
H2       0.33169    0.25109    0.85113   1.00
C5       0.34298    0.29834    0.81034   1.00
H2       0.34225    0.29774    0.87375   1.00
H2       0.34070    0.27577    0.78708   1.00
H2       0.36940    0.31601    0.80355   1.00
C5       0.30623    0.32431    0.81079   1.00
H2       0.28070    0.30689    0.82062   1.00
H2       0.30007    0.33609    0.78115   1.00
H2       0.31008    0.35006    0.83047   1.00
C5       0.51112    0.17480    0.83248   1.00
H2       0.53488    0.15282    0.82957   1.00
H2       0.52012    0.19545    0.85592   1.00
C5       0.50501    0.19697    0.79388   1.00
H2       0.53338    0.20834    0.78306   1.00
C5       0.49224    0.31417    0.53273   1.00
H2       0.46495    0.30569    0.51745   1.00
H2       0.49821    0.29046    0.55401   1.00
C5       0.52591    0.31733    0.50281   1.00
H2       0.53818    0.28801    0.49610   1.00
H2       0.54954    0.33625    0.51460   1.00
O_3      0.47769    0.44779    0.68500   1.00
C4       0.41456    0.41492    0.64400   1.00
C3c      0.43018    0.38368    0.62257   1.00
H1       0.44245    0.35890    0.63775   1.00
C3d      0.39821    0.44668    0.62365   1.00
C3       0.43077    0.38408    0.58146   1.00
O2       0.44212    0.35054    0.56252   1.00
C3       0.39943    0.44750    0.58273   1.00
H1       0.38779    0.47310    0.56843   1.00
C2       0.41550    0.41635    0.56061   1.00
C5       0.47614    0.48895    0.68621   1.00
H2       0.47748    0.50041    0.71662   1.00
H2       0.44885    0.50006    0.67234   1.00
C5       0.51114    0.50437    0.66378   1.00
H2       0.51039    0.49204    0.63371   1.00
H2       0.53821    0.49340    0.67809   1.00
C5       0.51095    0.54911    0.66246   1.00
H2       0.51142    0.56162    0.69240   1.00
H2       0.48460    0.56006    0.64697   1.00
H2       0.53720    0.55986    0.64670   1.00
C5       0.34573    0.47420    0.65395   1.00
C5       0.48253    0.35208    0.55430   1.00
H2       0.34221    0.44902    0.67412   1.00
H2       0.32682    0.46940    0.62788   1.00
H2       0.49954    0.35398    0.58200   1.00
H2       0.49060    0.37792    0.53605   1.00
H2       0.51544    0.32960    0.47445   1.00
H2       0.29792    0.48519    0.72250   1.00
H2       0.27113    0.49271    0.67734   1.00
C2       0.41589    0.41741    0.76895   1.00
C3       0.38493    0.39893    0.74903   1.00
O2       0.35063    0.39030    0.76826   1.00
C3       0.44696    0.43312    0.74674   1.00
H1       0.47158    0.44655    0.76115   1.00
C3a      0.38515    0.39745    0.70787   1.00
H1       0.36018    0.38519    0.69298   1.00
C3b      0.44649    0.43271    0.70578   1.00
C4       0.41540    0.41486    0.68600   1.00
O_3      0.38516    0.47944    0.64333   1.00
C5       0.34933    0.35027    0.77780   1.00
H2       0.35113    0.33169    0.75109   1.00
C5       0.31034    0.34298    0.79834   1.00
H2       0.37375    0.34225    0.79774   1.00
H2       0.28708    0.34070    0.77577   1.00
H2       0.30355    0.36940    0.81601   1.00
C5       0.31079    0.30623    0.82431   1.00
H2       0.32062    0.28070    0.80689   1.00
H2       0.28115    0.30007    0.83609   1.00
H2       0.33047    0.31008    0.85006   1.00
C5       0.33248    0.51112    0.67480   1.00
H2       0.32957    0.53488    0.65282   1.00
H2       0.35592    0.52012    0.69545   1.00
C5       0.29388    0.50501    0.69697   1.00
H2       0.28306    0.53338    0.70834   1.00
C5       0.49224    1.01583    0.79727   1.00
H2       0.46495    1.02431    0.81255   1.00
H2       0.49821    1.03954    0.77599   1.00
C5       0.52591    1.01267    0.82719   1.00
H2       0.53818    1.04199    0.83390   1.00
H2       0.54954    0.99375    0.81540   1.00
O_3      0.47769    0.88221    0.64500   1.00
C4       0.41456    0.91508    0.68600   1.00
C3c      0.43018    0.94632    0.70743   1.00
H1       0.44245    0.97110    0.69225   1.00
C3d      0.39821    0.88332    0.70635   1.00
C3       0.43077    0.94592    0.74854   1.00
O2       0.44212    0.97946    0.76748   1.00
C3       0.39943    0.88250    0.74727   1.00
H1       0.38779    0.85690    0.76157   1.00
C2       0.41550    0.91365    0.76939   1.00
C5       0.47614    0.84105    0.64379   1.00
H2       0.47748    0.82959    0.61338   1.00
H2       0.44885    0.82994    0.65766   1.00
C5       0.51114    0.82563    0.66622   1.00
H2       0.51039    0.83796    0.69629   1.00
H2       0.53821    0.83660    0.65191   1.00
C5       0.51095    0.78089    0.66754   1.00
H2       0.51142    0.76838    0.63760   1.00
H2       0.48460    0.76994    0.68303   1.00
H2       0.53720    0.77014    0.68330   1.00
C5       0.34573    0.85580    0.67605   1.00
C5       0.48253    0.97792    0.77570   1.00
H2       0.34221    0.88098    0.65588   1.00
H2       0.32682    0.86060    0.70212   1.00
H2       0.49954    0.97602    0.74800   1.00
H2       0.49060    0.95208    0.79395   1.00
H2       0.51544    1.00040    0.85555   1.00
H2       0.29792    0.84481    0.60750   1.00
H2       0.27113    0.83729    0.65266   1.00
C2       0.41589    0.91259    0.56105   1.00
C3       0.38493    0.93107    0.58097   1.00
O2       0.35063    0.93970    0.56174   1.00
C3       0.44696    0.89688    0.58326   1.00
H1       0.47158    0.88345    0.56885   1.00
C3a      0.38515    0.93255    0.62213   1.00
H1       0.36018    0.94481    0.63702   1.00
C3b      0.44649    0.89729    0.62422   1.00
C4       0.41540    0.91514    0.64400   1.00
O_3      0.38516    0.85056    0.68667   1.00
C5       0.34933    0.97973    0.55220   1.00
H2       0.35113    0.99831    0.57891   1.00
C5       0.31034    0.98702    0.53166   1.00
H2       0.37375    0.98775    0.53226   1.00
H2       0.28708    0.98930    0.55423   1.00
H2       0.30355    0.96060    0.51399   1.00
C5       0.31079    1.02377    0.50569   1.00
H2       0.32062    1.04930    0.52311   1.00
H2       0.28115    1.02993    0.49391   1.00
H2       0.33047    1.01992    0.47994   1.00
C5       0.33248    0.81888    0.65520   1.00
H2       0.32957    0.79512    0.67718   1.00
H2       0.35592    0.80988    0.63455   1.00
C5       0.29388    0.82499    0.63303   1.00
H2       0.28306    0.79662    0.62166   1.00
C5       0.51583    1.29727    0.49224   1.00
H2       0.52431    1.31255    0.46495   1.00
H2       0.53954    1.27599    0.49821   1.00
C5       0.51267    1.32719    0.52591   1.00
H2       0.54199    1.33390    0.53818   1.00
H2       0.49375    1.31540    0.54954   1.00
O_3      0.38221    1.14500    0.47769   1.00
C4       0.41508    1.18600    0.41456   1.00
C3c      0.44632    1.20743    0.43018   1.00
H1       0.47110    1.19225    0.44245   1.00
C3d      0.38332    1.20635    0.39821   1.00
C3       0.44592    1.24854    0.43077   1.00
O2       0.47946    1.26748    0.44212   1.00
C3       0.38250    1.24727    0.39943   1.00
H1       0.35690    1.26157    0.38779   1.00
C2       0.41365    1.26939    0.41550   1.00
C5       0.34105    1.14379    0.47614   1.00
H2       0.32959    1.11338    0.47748   1.00
H2       0.32994    1.15766    0.44885   1.00
C5       0.32563    1.16622    0.51114   1.00
H2       0.33796    1.19629    0.51039   1.00
H2       0.33660    1.15191    0.53821   1.00
C5       0.28089    1.16754    0.51095   1.00
H2       0.26838    1.13760    0.51142   1.00
H2       0.26994    1.18303    0.48460   1.00
H2       0.27014    1.18330    0.53720   1.00
C5       0.35580    1.17605    0.34573   1.00
C5       0.47792    1.27570    0.48253   1.00
H2       0.38098    1.15588    0.34221   1.00
H2       0.36060    1.20212    0.32682   1.00
H2       0.47602    1.24800    0.49954   1.00
H2       0.45208    1.29395    0.49060   1.00
H2       0.50040    1.35555    0.51544   1.00
H2       0.34481    1.10750    0.29792   1.00
H2       0.33729    1.15266    0.27113   1.00
C2       0.41259    1.06105    0.41589   1.00
C3       0.43107    1.08097    0.38493   1.00
O2       0.43970    1.06174    0.35063   1.00
C3       0.39688    1.08326    0.44696   1.00
H1       0.38345    1.06885    0.47158   1.00
C3a      0.43255    1.12213    0.38515   1.00
H1       0.44481    1.13702    0.36018   1.00
C3b      0.39729    1.12422    0.44649   1.00
C4       0.41514    1.14400    0.41540   1.00
O_3      0.35056    1.18667    0.38516   1.00
C5       0.47973    1.05220    0.34933   1.00
H2       0.49831    1.07891    0.35113   1.00
C5       0.48702    1.03166    0.31034   1.00
H2       0.48775    1.03226    0.37375   1.00
H2       0.48930    1.05423    0.28708   1.00
H2       0.46060    1.01399    0.30355   1.00
C5       0.52377    1.00569    0.31079   1.00
H2       0.54930    1.02311    0.32062   1.00
H2       0.52993    0.99391    0.28115   1.00
H2       0.51992    0.97994    0.33047   1.00
C5       0.31888    1.15520    0.33248   1.00
H2       0.29512    1.17718    0.32957   1.00
H2       0.30988    1.13455    0.35592   1.00
C5       0.32499    1.13303    0.29388   1.00
H2       0.29662    1.12166    0.28306   1.00
C5       0.03273    0.99224    0.31417   1.00
H2       0.01745    0.96495    0.30569   1.00
H2       0.05401    0.99821    0.29046   1.00
C5       0.00281    1.02591    0.31733   1.00
H2       -0.00390   1.03818    0.28801   1.00
H2       0.01460    1.04954    0.33625   1.00
O_3      0.18500    0.97769    0.44779   1.00
C4       0.14400    0.91456    0.41492   1.00
C3c      0.12257    0.93018    0.38368   1.00
H1       0.13775    0.94245    0.35890   1.00
C3d      0.12365    0.89821    0.44668   1.00
C3       0.08146    0.93077    0.38408   1.00
O2       0.06252    0.94212    0.35054   1.00
C3       0.08273    0.89943    0.44750   1.00
H1       0.06843    0.88779    0.47310   1.00
C2       0.06061    0.91550    0.41635   1.00
C5       0.18621    0.97614    0.48895   1.00
H2       0.21662    0.97748    0.50041   1.00
H2       0.17234    0.94885    0.50006   1.00
C5       0.16378    1.01114    0.50437   1.00
H2       0.13371    1.01039    0.49204   1.00
H2       0.17809    1.03821    0.49340   1.00
C5       0.16246    1.01095    0.54911   1.00
H2       0.19240    1.01142    0.56162   1.00
H2       0.14697    0.98460    0.56006   1.00
H2       0.14670    1.03720    0.55986   1.00
C5       0.15395    0.84573    0.47420   1.00
C5       0.05430    0.98253    0.35208   1.00
H2       0.17412    0.84221    0.44902   1.00
H2       0.12788    0.82682    0.46940   1.00
H2       0.08200    0.99954    0.35398   1.00
H2       0.03605    0.99060    0.37792   1.00
H2       -0.02555   1.01544    0.32960   1.00
H2       0.22250    0.79792    0.48519   1.00
H2       0.17734    0.77113    0.49271   1.00
C2       0.26895    0.91589    0.41741   1.00
C3       0.24903    0.88493    0.39893   1.00
O2       0.26826    0.85063    0.39030   1.00
C3       0.24674    0.94696    0.43312   1.00
H1       0.26115    0.97158    0.44655   1.00
C3a      0.20787    0.88515    0.39745   1.00
H1       0.19298    0.86018    0.38519   1.00
C3b      0.20578    0.94649    0.43271   1.00
C4       0.18600    0.91540    0.41486   1.00
O_3      0.14333    0.88516    0.47944   1.00
C5       0.27780    0.84933    0.35027   1.00
H2       0.25109    0.85113    0.33169   1.00
C5       0.29834    0.81034    0.34298   1.00
H2       0.29774    0.87375    0.34225   1.00
H2       0.27577    0.78708    0.34070   1.00
H2       0.31601    0.80355    0.36940   1.00
C5       0.32431    0.81079    0.30623   1.00
H2       0.30689    0.82062    0.28070   1.00
H2       0.33609    0.78115    0.30007   1.00
H2       0.35006    0.83047    0.31008   1.00
C5       0.17480    0.83248    0.51112   1.00
H2       0.15282    0.82957    0.53488   1.00
H2       0.19545    0.85592    0.52012   1.00
C5       0.19697    0.79388    0.50501   1.00
H2       0.20834    0.78306    0.53338   1.00
C5       0.79727    0.99224    0.51583   1.00
H2       0.81255    0.96495    0.52431   1.00
H2       0.77599    0.99821    0.53954   1.00
C5       0.82719    1.02591    0.51267   1.00
H2       0.83390    1.03818    0.54199   1.00
H2       0.81540    1.04954    0.49375   1.00
O_3      0.64500    0.97769    0.38221   1.00
C4       0.68600    0.91456    0.41508   1.00
C3c      0.70743    0.93018    0.44632   1.00
H1       0.69225    0.94245    0.47110   1.00
C3d      0.70635    0.89821    0.38332   1.00
C3       0.74854    0.93077    0.44592   1.00
O2       0.76748    0.94212    0.47946   1.00
C3       0.74727    0.89943    0.38250   1.00
H1       0.76157    0.88779    0.35690   1.00
C2       0.76939    0.91550    0.41365   1.00
C5       0.64379    0.97614    0.34105   1.00
H2       0.61338    0.97748    0.32959   1.00
H2       0.65766    0.94885    0.32994   1.00
C5       0.66622    1.01114    0.32563   1.00
H2       0.69629    1.01039    0.33796   1.00
H2       0.65191    1.03821    0.33660   1.00
C5       0.66754    1.01095    0.28089   1.00
H2       0.63760    1.01142    0.26838   1.00
H2       0.68303    0.98460    0.26994   1.00
H2       0.68330    1.03720    0.27014   1.00
C5       0.67605    0.84573    0.35580   1.00
C5       0.77570    0.98253    0.47792   1.00
H2       0.65588    0.84221    0.38098   1.00
H2       0.70212    0.82682    0.36060   1.00
H2       0.74800    0.99954    0.47602   1.00
H2       0.79395    0.99060    0.45208   1.00
H2       0.85555    1.01544    0.50040   1.00
H2       0.60750    0.79792    0.34481   1.00
H2       0.65266    0.77113    0.33729   1.00
C2       0.56105    0.91589    0.41259   1.00
C3       0.58097    0.88493    0.43107   1.00
O2       0.56174    0.85063    0.43970   1.00
C3       0.58326    0.94696    0.39688   1.00
H1       0.56885    0.97158    0.38345   1.00
C3a      0.62213    0.88515    0.43255   1.00
H1       0.63702    0.86018    0.44481   1.00
C3b      0.62422    0.94649    0.39729   1.00
C4       0.64400    0.91540    0.41514   1.00
O_3      0.68667    0.88516    0.35056   1.00
C5       0.55220    0.84933    0.47973   1.00
H2       0.57891    0.85113    0.49831   1.00
C5       0.53166    0.81034    0.48702   1.00
H2       0.53226    0.87375    0.48775   1.00
H2       0.55423    0.78708    0.48930   1.00
H2       0.51399    0.80355    0.46060   1.00
C5       0.50569    0.81079    0.52377   1.00
H2       0.52311    0.82062    0.54930   1.00
H2       0.49391    0.78115    0.52993   1.00
H2       0.47994    0.83047    0.51992   1.00
C5       0.65520    0.83248    0.31888   1.00
H2       0.67718    0.82957    0.29512   1.00
H2       0.63455    0.85592    0.30988   1.00
C5       0.63303    0.79388    0.32499   1.00
H2       0.62166    0.78306    0.29662   1.00
C5       0.31417    0.53273    0.49224   1.00
H2       0.30569    0.51745    0.46495   1.00
H2       0.29046    0.55401    0.49821   1.00
C5       0.31733    0.50281    0.52591   1.00
H2       0.28801    0.49610    0.53818   1.00
H2       0.33625    0.51460    0.54954   1.00
O_3      0.44779    0.68500    0.47769   1.00
C4       0.41492    0.64400    0.41456   1.00
C3c      0.38368    0.62257    0.43018   1.00
H1       0.35890    0.63775    0.44245   1.00
C3d      0.44668    0.62365    0.39821   1.00
C3       0.38408    0.58146    0.43077   1.00
O2       0.35054    0.56252    0.44212   1.00
C3       0.44750    0.58273    0.39943   1.00
H1       0.47310    0.56843    0.38779   1.00
C2       0.41635    0.56061    0.41550   1.00
C5       0.48895    0.68621    0.47614   1.00
H2       0.50041    0.71662    0.47748   1.00
H2       0.50006    0.67234    0.44885   1.00
C5       0.50437    0.66378    0.51114   1.00
H2       0.49204    0.63371    0.51039   1.00
H2       0.49340    0.67809    0.53821   1.00
C5       0.54911    0.66246    0.51095   1.00
H2       0.56162    0.69240    0.51142   1.00
H2       0.56006    0.64697    0.48460   1.00
H2       0.55986    0.64670    0.53720   1.00
C5       0.47420    0.65395    0.34573   1.00
C5       0.35208    0.55430    0.48253   1.00
H2       0.44902    0.67412    0.34221   1.00
H2       0.46940    0.62788    0.32682   1.00
H2       0.35398    0.58200    0.49954   1.00
H2       0.37792    0.53605    0.49060   1.00
H2       0.32960    0.47445    0.51544   1.00
H2       0.48519    0.72250    0.29792   1.00
H2       0.49271    0.67734    0.27113   1.00
C2       0.41741    0.76895    0.41589   1.00
C3       0.39893    0.74903    0.38493   1.00
O2       0.39030    0.76826    0.35063   1.00
C3       0.43312    0.74674    0.44696   1.00
H1       0.44655    0.76115    0.47158   1.00
C3a      0.39745    0.70787    0.38515   1.00
H1       0.38519    0.69298    0.36018   1.00
C3b      0.43271    0.70578    0.44649   1.00
C4       0.41486    0.68600    0.41540   1.00
O_3      0.47944    0.64333    0.38516   1.00
C5       0.35027    0.77780    0.34933   1.00
H2       0.33169    0.75109    0.35113   1.00
C5       0.34298    0.79834    0.31034   1.00
H2       0.34225    0.79774    0.37375   1.00
H2       0.34070    0.77577    0.28708   1.00
H2       0.36940    0.81601    0.30355   1.00
C5       0.30623    0.82431    0.31079   1.00
H2       0.28070    0.80689    0.32062   1.00
H2       0.30007    0.83609    0.28115   1.00
H2       0.31008    0.85006    0.33047   1.00
C5       0.51112    0.67480    0.33248   1.00
H2       0.53488    0.65282    0.32957   1.00
H2       0.52012    0.69545    0.35592   1.00
C5       0.50501    0.69697    0.29388   1.00
H2       0.53338    0.70834    0.28306   1.00
C5       0.49224    0.81417    0.03273   1.00
H2       0.46495    0.80569    0.01745   1.00
H2       0.49821    0.79046    0.05401   1.00
C5       0.52591    0.81733    0.00281   1.00
H2       0.53818    0.78801    -0.00390   1.00
H2       0.54954    0.83625    0.01460   1.00
O_3      0.47769    0.94779    0.18500   1.00
C4       0.41456    0.91492    0.14400   1.00
C3c      0.43018    0.88368    0.12257   1.00
H1       0.44245    0.85890    0.13775   1.00
C3d      0.39821    0.94668    0.12365   1.00
C3       0.43077    0.88408    0.08146   1.00
O2       0.44212    0.85054    0.06252   1.00
C3       0.39943    0.94750    0.08273   1.00
H1       0.38779    0.97310    0.06843   1.00
C2       0.41550    0.91635    0.06061   1.00
C5       0.47614    0.98895    0.18621   1.00
H2       0.47748    1.00041    0.21662   1.00
H2       0.44885    1.00006    0.17234   1.00
C5       0.51114    1.00437    0.16378   1.00
H2       0.51039    0.99204    0.13371   1.00
H2       0.53821    0.99340    0.17809   1.00
C5       0.51095    1.04911    0.16246   1.00
H2       0.51142    1.06162    0.19240   1.00
H2       0.48460    1.06006    0.14697   1.00
H2       0.53720    1.05986    0.14670   1.00
C5       0.34573    0.97420    0.15395   1.00
C5       0.48253    0.85208    0.05430   1.00
H2       0.34221    0.94902    0.17412   1.00
H2       0.32682    0.96940    0.12788   1.00
H2       0.49954    0.85398    0.08200   1.00
H2       0.49060    0.87792    0.03605   1.00
H2       0.51544    0.82960    -0.02555   1.00
H2       0.29792    0.98519    0.22250   1.00
H2       0.27113    0.99271    0.17734   1.00
C2       0.41589    0.91741    0.26895   1.00
C3       0.38493    0.89893    0.24903   1.00
O2       0.35063    0.89030    0.26826   1.00
C3       0.44696    0.93312    0.24674   1.00
H1       0.47158    0.94655    0.26115   1.00
C3a      0.38515    0.89745    0.20787   1.00
H1       0.36018    0.88519    0.19298   1.00
C3b      0.44649    0.93271    0.20578   1.00
C4       0.41540    0.91486    0.18600   1.00
O_3      0.38516    0.97944    0.14333   1.00
C5       0.34933    0.85027    0.27780   1.00
H2       0.35113    0.83169    0.25109   1.00
C5       0.31034    0.84298    0.29834   1.00
H2       0.37375    0.84225    0.29774   1.00
H2       0.28708    0.84070    0.27577   1.00
H2       0.30355    0.86940    0.31601   1.00
C5       0.31079    0.80623    0.32431   1.00
H2       0.32062    0.78070    0.30689   1.00
H2       0.28115    0.80007    0.33609   1.00
H2       0.33047    0.81008    0.35006   1.00
C5       0.33248    1.01112    0.17480   1.00
H2       0.32957    1.03488    0.15282   1.00
H2       0.35592    1.02012    0.19545   1.00
C5       0.29388    1.00501    0.19697   1.00
H2       0.28306    1.03338    0.20834   1.00
C5       0.99224    0.51583    0.79727   1.00
H2       0.96495    0.52431    0.81255   1.00
H2       0.99821    0.53954    0.77599   1.00
C5       1.02591    0.51267    0.82719   1.00
H2       1.03818    0.54199    0.83390   1.00
H2       1.04954    0.49375    0.81540   1.00
O_3      0.97769    0.38221    0.64500   1.00
C4       0.91456    0.41508    0.68600   1.00
C3c      0.93018    0.44632    0.70743   1.00
H1       0.94245    0.47110    0.69225   1.00
C3d      0.89821    0.38332    0.70635   1.00
C3       0.93077    0.44592    0.74854   1.00
O2       0.94212    0.47946    0.76748   1.00
C3       0.89943    0.38250    0.74727   1.00
H1       0.88779    0.35690    0.76157   1.00
C2       0.91550    0.41365    0.76939   1.00
C5       0.97614    0.34105    0.64379   1.00
H2       0.97748    0.32959    0.61338   1.00
H2       0.94885    0.32994    0.65766   1.00
C5       1.01114    0.32563    0.66622   1.00
H2       1.01039    0.33796    0.69629   1.00
H2       1.03821    0.33660    0.65191   1.00
C5       1.01095    0.28089    0.66754   1.00
H2       1.01142    0.26838    0.63760   1.00
H2       0.98460    0.26994    0.68303   1.00
H2       1.03720    0.27014    0.68330   1.00
C5       0.84573    0.35580    0.67605   1.00
C5       0.98253    0.47792    0.77570   1.00
H2       0.84221    0.38098    0.65588   1.00
H2       0.82682    0.36060    0.70212   1.00
H2       0.99954    0.47602    0.74800   1.00
H2       0.99060    0.45208    0.79395   1.00
H2       1.01544    0.50040    0.85555   1.00
H2       0.79792    0.34481    0.60750   1.00
H2       0.77113    0.33729    0.65266   1.00
C2       0.91589    0.41259    0.56105   1.00
C3       0.88493    0.43107    0.58097   1.00
O2       0.85063    0.43970    0.56174   1.00
C3       0.94696    0.39688    0.58326   1.00
H1       0.97158    0.38345    0.56885   1.00
C3a      0.88515    0.43255    0.62213   1.00
H1       0.86018    0.44481    0.63702   1.00
C3b      0.94649    0.39729    0.62422   1.00
C4       0.91540    0.41514    0.64400   1.00
O_3      0.88516    0.35056    0.68667   1.00
C5       0.84933    0.47973    0.55220   1.00
H2       0.85113    0.49831    0.57891   1.00
C5       0.81034    0.48702    0.53166   1.00
H2       0.87375    0.48775    0.53226   1.00
H2       0.78708    0.48930    0.55423   1.00
H2       0.80355    0.46060    0.51399   1.00
C5       0.81079    0.52377    0.50569   1.00
H2       0.82062    0.54930    0.52311   1.00
H2       0.78115    0.52993    0.49391   1.00
H2       0.83047    0.51992    0.47994   1.00
C5       0.83248    0.31888    0.65520   1.00
H2       0.82957    0.29512    0.67718   1.00
H2       0.85592    0.30988    0.63455   1.00
C5       0.79388    0.32499    0.63303   1.00
H2       0.78306    0.29662    0.62166   1.00
C5       1.01583    0.79727    0.49224   1.00
H2       1.02431    0.81255    0.46495   1.00
H2       1.03954    0.77599    0.49821   1.00
C5       1.01267    0.82719    0.52591   1.00
H2       1.04199    0.83390    0.53818   1.00
H2       0.99375    0.81540    0.54954   1.00
O_3      0.88221    0.64500    0.47769   1.00
C4       0.91508    0.68600    0.41456   1.00
C3c      0.94632    0.70743    0.43018   1.00
H1       0.97110    0.69225    0.44245   1.00
C3d      0.88332    0.70635    0.39821   1.00
C3       0.94592    0.74854    0.43077   1.00
O2       0.97946    0.76748    0.44212   1.00
C3       0.88250    0.74727    0.39943   1.00
H1       0.85690    0.76157    0.38779   1.00
C2       0.91365    0.76939    0.41550   1.00
C5       0.84105    0.64379    0.47614   1.00
H2       0.82959    0.61338    0.47748   1.00
H2       0.82994    0.65766    0.44885   1.00
C5       0.82563    0.66622    0.51114   1.00
H2       0.83796    0.69629    0.51039   1.00
H2       0.83660    0.65191    0.53821   1.00
C5       0.78089    0.66754    0.51095   1.00
H2       0.76838    0.63760    0.51142   1.00
H2       0.76994    0.68303    0.48460   1.00
H2       0.77014    0.68330    0.53720   1.00
C5       0.85580    0.67605    0.34573   1.00
C5       0.97792    0.77570    0.48253   1.00
H2       0.88098    0.65588    0.34221   1.00
H2       0.86060    0.70212    0.32682   1.00
H2       0.97602    0.74800    0.49954   1.00
H2       0.95208    0.79395    0.49060   1.00
H2       1.00040    0.85555    0.51544   1.00
H2       0.84481    0.60750    0.29792   1.00
H2       0.83729    0.65266    0.27113   1.00
C2       0.91259    0.56105    0.41589   1.00
C3       0.93107    0.58097    0.38493   1.00
O2       0.93970    0.56174    0.35063   1.00
C3       0.89688    0.58326    0.44696   1.00
H1       0.88345    0.56885    0.47158   1.00
C3a      0.93255    0.62213    0.38515   1.00
H1       0.94481    0.63702    0.36018   1.00
C3b      0.89729    0.62422    0.44649   1.00
C4       0.91514    0.64400    0.41540   1.00
O_3      0.85056    0.68667    0.38516   1.00
C5       0.97973    0.55220    0.34933   1.00
H2       0.99831    0.57891    0.35113   1.00
C5       0.98702    0.53166    0.31034   1.00
H2       0.98775    0.53226    0.37375   1.00
H2       0.98930    0.55423    0.28708   1.00
H2       0.96060    0.51399    0.30355   1.00
C5       1.02377    0.50569    0.31079   1.00
H2       1.04930    0.52311    0.32062   1.00
H2       1.02993    0.49391    0.28115   1.00
H2       1.01992    0.47994    0.33047   1.00
C5       0.81888    0.65520    0.33248   1.00
H2       0.79512    0.67718    0.32957   1.00
H2       0.80988    0.63455    0.35592   1.00
C5       0.82499    0.63303    0.29388   1.00
H2       0.79662    0.62166    0.28306   1.00
C5       0.53273    0.49224    0.31417   1.00
H2       0.51745    0.46495    0.30569   1.00
H2       0.55401    0.49821    0.29046   1.00
C5       0.50281    0.52591    0.31733   1.00
H2       0.49610    0.53818    0.28801   1.00
H2       0.51460    0.54954    0.33625   1.00
O_3      0.68500    0.47769    0.44779   1.00
C4       0.64400    0.41456    0.41492   1.00
C3c      0.62257    0.43018    0.38368   1.00
H1       0.63775    0.44245    0.35890   1.00
C3d      0.62365    0.39821    0.44668   1.00
C3       0.58146    0.43077    0.38408   1.00
O2       0.56252    0.44212    0.35054   1.00
C3       0.58273    0.39943    0.44750   1.00
H1       0.56843    0.38779    0.47310   1.00
C2       0.56061    0.41550    0.41635   1.00
C5       0.68621    0.47614    0.48895   1.00
H2       0.71662    0.47748    0.50041   1.00
H2       0.67234    0.44885    0.50006   1.00
C5       0.66378    0.51114    0.50437   1.00
H2       0.63371    0.51039    0.49204   1.00
H2       0.67809    0.53821    0.49340   1.00
C5       0.66246    0.51095    0.54911   1.00
H2       0.69240    0.51142    0.56162   1.00
H2       0.64697    0.48460    0.56006   1.00
H2       0.64670    0.53720    0.55986   1.00
C5       0.65395    0.34573    0.47420   1.00
C5       0.55430    0.48253    0.35208   1.00
H2       0.67412    0.34221    0.44902   1.00
H2       0.62788    0.32682    0.46940   1.00
H2       0.58200    0.49954    0.35398   1.00
H2       0.53605    0.49060    0.37792   1.00
H2       0.47445    0.51544    0.32960   1.00
H2       0.72250    0.29792    0.48519   1.00
H2       0.67734    0.27113    0.49271   1.00
C2       0.76895    0.41589    0.41741   1.00
C3       0.74903    0.38493    0.39893   1.00
O2       0.76826    0.35063    0.39030   1.00
C3       0.74674    0.44696    0.43312   1.00
H1       0.76115    0.47158    0.44655   1.00
C3a      0.70787    0.38515    0.39745   1.00
H1       0.69298    0.36018    0.38519   1.00
C3b      0.70578    0.44649    0.43271   1.00
C4       0.68600    0.41540    0.41486   1.00
O_3      0.64333    0.38516    0.47944   1.00
C5       0.77780    0.34933    0.35027   1.00
H2       0.75109    0.35113    0.33169   1.00
C5       0.79834    0.31034    0.34298   1.00
H2       0.79774    0.37375    0.34225   1.00
H2       0.77577    0.28708    0.34070   1.00
H2       0.81601    0.30355    0.36940   1.00
C5       0.82431    0.31079    0.30623   1.00
H2       0.80689    0.32062    0.28070   1.00
H2       0.83609    0.28115    0.30007   1.00
H2       0.85006    0.33047    0.31008   1.00
C5       0.67480    0.33248    0.51112   1.00
H2       0.65282    0.32957    0.53488   1.00
H2       0.69545    0.35592    0.52012   1.00
C5       0.69697    0.29388    0.50501   1.00
H2       0.70834    0.28306    0.53338   1.00
C5       1.29727    0.49224    0.51583   1.00
H2       1.31255    0.46495    0.52431   1.00
H2       1.27599    0.49821    0.53954   1.00
C5       1.32719    0.52591    0.51267   1.00
H2       1.33390    0.53818    0.54199   1.00
H2       1.31540    0.54954    0.49375   1.00
O_3      1.14500    0.47769    0.38221   1.00
C4       1.18600    0.41456    0.41508   1.00
C3c      1.20743    0.43018    0.44632   1.00
H1       1.19225    0.44245    0.47110   1.00
C3d      1.20635    0.39821    0.38332   1.00
C3       1.24854    0.43077    0.44592   1.00
O2       1.26748    0.44212    0.47946   1.00
C3       1.24727    0.39943    0.38250   1.00
H1       1.26157    0.38779    0.35690   1.00
C2       1.26939    0.41550    0.41365   1.00
C5       1.14379    0.47614    0.34105   1.00
H2       1.11338    0.47748    0.32959   1.00
H2       1.15766    0.44885    0.32994   1.00
C5       1.16622    0.51114    0.32563   1.00
H2       1.19629    0.51039    0.33796   1.00
H2       1.15191    0.53821    0.33660   1.00
C5       1.16754    0.51095    0.28089   1.00
H2       1.13760    0.51142    0.26838   1.00
H2       1.18303    0.48460    0.26994   1.00
H2       1.18330    0.53720    0.27014   1.00
C5       1.17605    0.34573    0.35580   1.00
C5       1.27570    0.48253    0.47792   1.00
H2       1.15588    0.34221    0.38098   1.00
H2       1.20212    0.32682    0.36060   1.00
H2       1.24800    0.49954    0.47602   1.00
H2       1.29395    0.49060    0.45208   1.00
H2       1.35555    0.51544    0.50040   1.00
H2       1.10750    0.29792    0.34481   1.00
H2       1.15266    0.27113    0.33729   1.00
C2       1.06105    0.41589    0.41259   1.00
C3       1.08097    0.38493    0.43107   1.00
O2       1.06174    0.35063    0.43970   1.00
C3       1.08326    0.44696    0.39688   1.00
H1       1.06885    0.47158    0.38345   1.00
C3a      1.12213    0.38515    0.43255   1.00
H1       1.13702    0.36018    0.44481   1.00
C3b      1.12422    0.44649    0.39729   1.00
C4       1.14400    0.41540    0.41514   1.00
O_3      1.18667    0.38516    0.35056   1.00
C5       1.05220    0.34933    0.47973   1.00
H2       1.07891    0.35113    0.49831   1.00
C5       1.03166    0.31034    0.48702   1.00
H2       1.03226    0.37375    0.48775   1.00
H2       1.05423    0.28708    0.48930   1.00
H2       1.01399    0.30355    0.46060   1.00
C5       1.00569    0.31079    0.52377   1.00
H2       1.02311    0.32062    0.54930   1.00
H2       0.99391    0.28115    0.52993   1.00
H2       0.97994    0.33047    0.51992   1.00
C5       1.15520    0.33248    0.31888   1.00
H2       1.17718    0.32957    0.29512   1.00
H2       1.13455    0.35592    0.30988   1.00
C5       1.13303    0.29388    0.32499   1.00
H2       1.12166    0.28306    0.29662   1.00
C5       0.81417    0.03273    0.49224   1.00
H2       0.80569    0.01745    0.46495   1.00
H2       0.79046    0.05401    0.49821   1.00
C5       0.81733    0.00281    0.52591   1.00
H2       0.78801    -0.00390   0.53818   1.00
H2       0.83625    0.01460    0.54954   1.00
O_3      0.94779    0.18500    0.47769   1.00
C4       0.91492    0.14400    0.41456   1.00
C3c      0.88368    0.12257    0.43018   1.00
H1       0.85890    0.13775    0.44245   1.00
C3d      0.94668    0.12365    0.39821   1.00
C3       0.88408    0.08146    0.43077   1.00
O2       0.85054    0.06252    0.44212   1.00
C3       0.94750    0.08273    0.39943   1.00
H1       0.97310    0.06843    0.38779   1.00
C2       0.91635    0.06061    0.41550   1.00
C5       0.98895    0.18621    0.47614   1.00
H2       1.00041    0.21662    0.47748   1.00
H2       1.00006    0.17234    0.44885   1.00
C5       1.00437    0.16378    0.51114   1.00
H2       0.99204    0.13371    0.51039   1.00
H2       0.99340    0.17809    0.53821   1.00
C5       1.04911    0.16246    0.51095   1.00
H2       1.06162    0.19240    0.51142   1.00
H2       1.06006    0.14697    0.48460   1.00
H2       1.05986    0.14670    0.53720   1.00
C5       0.97420    0.15395    0.34573   1.00
C5       0.85208    0.05430    0.48253   1.00
H2       0.94902    0.17412    0.34221   1.00
H2       0.96940    0.12788    0.32682   1.00
H2       0.85398    0.08200    0.49954   1.00
H2       0.87792    0.03605    0.49060   1.00
H2       0.82960    -0.02555   0.51544   1.00
H2       0.98519    0.22250    0.29792   1.00
H2       0.99271    0.17734    0.27113   1.00
C2       0.91741    0.26895    0.41589   1.00
C3       0.89893    0.24903    0.38493   1.00
O2       0.89030    0.26826    0.35063   1.00
C3       0.93312    0.24674    0.44696   1.00
H1       0.94655    0.26115    0.47158   1.00
C3a      0.89745    0.20787    0.38515   1.00
H1       0.88519    0.19298    0.36018   1.00
C3b      0.93271    0.20578    0.44649   1.00
C4       0.91486    0.18600    0.41540   1.00
O_3      0.97944    0.14333    0.38516   1.00
C5       0.85027    0.27780    0.34933   1.00
H2       0.83169    0.25109    0.35113   1.00
C5       0.84298    0.29834    0.31034   1.00
H2       0.84225    0.29774    0.37375   1.00
H2       0.84070    0.27577    0.28708   1.00
H2       0.86940    0.31601    0.30355   1.00
C5       0.80623    0.32431    0.31079   1.00
H2       0.78070    0.30689    0.32062   1.00
H2       0.80007    0.33609    0.28115   1.00
H2       0.81008    0.35006    0.33047   1.00
C5       1.01112    0.17480    0.33248   1.00
H2       1.03488    0.15282    0.32957   1.00
H2       1.02012    0.19545    0.35592   1.00
C5       1.00501    0.19697    0.29388   1.00
H2       1.03338    0.20834    0.28306   1.00
C5       0.99224    0.31417    0.03273   1.00
H2       0.96495    0.30569    0.01745   1.00
H2       0.99821    0.29046    0.05401   1.00
C5       1.02591    0.31733    0.00281   1.00
H2       1.03818    0.28801    -0.00390   1.00
H2       1.04954    0.33625    0.01460   1.00
O_3      0.97769    0.44779    0.18500   1.00
C4       0.91456    0.41492    0.14400   1.00
C3c      0.93018    0.38368    0.12257   1.00
H1       0.94245    0.35890    0.13775   1.00
C3d      0.89821    0.44668    0.12365   1.00
C3       0.93077    0.38408    0.08146   1.00
O2       0.94212    0.35054    0.06252   1.00
C3       0.89943    0.44750    0.08273   1.00
H1       0.88779    0.47310    0.06843   1.00
C2       0.91550    0.41635    0.06061   1.00
C5       0.97614    0.48895    0.18621   1.00
H2       0.97748    0.50041    0.21662   1.00
H2       0.94885    0.50006    0.17234   1.00
C5       1.01114    0.50437    0.16378   1.00
H2       1.01039    0.49204    0.13371   1.00
H2       1.03821    0.49340    0.17809   1.00
C5       1.01095    0.54911    0.16246   1.00
H2       1.01142    0.56162    0.19240   1.00
H2       0.98460    0.56006    0.14697   1.00
H2       1.03720    0.55986    0.14670   1.00
C5       0.84573    0.47420    0.15395   1.00
C5       0.98253    0.35208    0.05430   1.00
H2       0.84221    0.44902    0.17412   1.00
H2       0.82682    0.46940    0.12788   1.00
H2       0.99954    0.35398    0.08200   1.00
H2       0.99060    0.37792    0.03605   1.00
H2       1.01544    0.32960    -0.02555   1.00
H2       0.79792    0.48519    0.22250   1.00
H2       0.77113    0.49271    0.17734   1.00
C2       0.91589    0.41741    0.26895   1.00
C3       0.88493    0.39893    0.24903   1.00
O2       0.85063    0.39030    0.26826   1.00
C3       0.94696    0.43312    0.24674   1.00
H1       0.97158    0.44655    0.26115   1.00
C3a      0.88515    0.39745    0.20787   1.00
H1       0.86018    0.38519    0.19298   1.00
C3b      0.94649    0.43271    0.20578   1.00
C4       0.91540    0.41486    0.18600   1.00
O_3      0.88516    0.47944    0.14333   1.00
C5       0.84933    0.35027    0.27780   1.00
H2       0.85113    0.33169    0.25109   1.00
C5       0.81034    0.34298    0.29834   1.00
H2       0.87375    0.34225    0.29774   1.00
H2       0.78708    0.34070    0.27577   1.00
H2       0.80355    0.36940    0.31601   1.00
C5       0.81079    0.30623    0.32431   1.00
H2       0.82062    0.28070    0.30689   1.00
H2       0.78115    0.30007    0.33609   1.00
H2       0.83047    0.31008    0.35006   1.00
C5       0.83248    0.51112    0.17480   1.00
H2       0.82957    0.53488    0.15282   1.00
H2       0.85592    0.52012    0.19545   1.00
C5       0.79388    0.50501    0.19697   1.00
H2       0.78306    0.53338    0.20834   1.00
