data_IRMOF10_SG202_interpen_Ligand10cp_label_d.

_audit_creation_method             'generated by an auxiliary program of Tobunporous'

_symmetry_space_group_name_H-M     'P 1'
_symmetry_Int_Tables_number        1
_symmetry_cell_setting             triclinic

_cell_length_a                    34.2800
_cell_length_b                    34.2800
_cell_length_c                    34.2800
_cell_angle_alpha                 90.0000
_cell_angle_beta                  90.0000
_cell_angle_gamma                 90.0000

loop_
_atom_site_label
_atom_site_fract_x
_atom_site_fract_y
_atom_site_fract_z
_atom_site_occupancy
O1       0.75000    0.75000    0.75000   1.00
Zn1      0.71720    0.78280    0.78280   1.00
Zn1      0.78280    0.71720    0.78280   1.00
Zn1      0.78280    0.78280    0.71720   1.00
Zn1      0.71720    0.71720    0.71720   1.00
O2       0.72650    0.77350    0.83820   1.00
O2       0.72650    0.83820    0.77350   1.00
O2       0.66180    0.77350    0.77350   1.00
O2       0.77350    0.72650    0.83820   1.00
O2       0.83820    0.72650    0.77350   1.00
O2       0.77350    0.66180    0.77350   1.00
O2       0.77350    0.83820    0.72650   1.00
O2       0.83820    0.77350    0.72650   1.00
O2       0.77350    0.77350    0.66180   1.00
O2       0.66180    0.72650    0.72650   1.00
O2       0.72650    0.66180    0.72650   1.00
O2       0.72650    0.72650    0.66180   1.00
C1       0.75000    0.75000    0.85520   1.00
C1       0.75000    0.85520    0.75000   1.00
C1       0.64480    0.75000    0.75000   1.00
C1       0.85520    0.75000    0.75000   1.00
C1       0.75000    0.64480    0.75000   1.00
C1       0.75000    0.75000    0.64480   1.00
O1       0.25000    0.25000    0.75000   1.00
Zn1      0.21720    0.28280    0.78280   1.00
Zn1      0.28280    0.21720    0.78280   1.00
Zn1      0.28280    0.28280    0.71720   1.00
Zn1      0.21720    0.21720    0.71720   1.00
O2       0.22650    0.27350    0.83820   1.00
O2       0.22650    0.33820    0.77350   1.00
O2       0.16180    0.27350    0.77350   1.00
O2       0.27350    0.22650    0.83820   1.00
O2       0.33820    0.22650    0.77350   1.00
O2       0.27350    0.16180    0.77350   1.00
O2       0.27350    0.33820    0.72650   1.00
O2       0.33820    0.27350    0.72650   1.00
O2       0.27350    0.27350    0.66180   1.00
O2       0.16180    0.22650    0.72650   1.00
O2       0.22650    0.16180    0.72650   1.00
O2       0.22650    0.22650    0.66180   1.00
C1       0.25000    0.25000    0.85520   1.00
C1       0.25000    0.35520    0.75000   1.00
C1       0.14480    0.25000    0.75000   1.00
C1       0.35520    0.25000    0.75000   1.00
C1       0.25000    0.14480    0.75000   1.00
C1       0.25000    0.25000    0.64480   1.00
O1       0.25000    0.75000    0.25000   1.00
Zn1      0.21720    0.78280    0.28280   1.00
Zn1      0.28280    0.71720    0.28280   1.00
Zn1      0.28280    0.78280    0.21720   1.00
Zn1      0.21720    0.71720    0.21720   1.00
O2       0.22650    0.77350    0.33820   1.00
O2       0.22650    0.83820    0.27350   1.00
O2       0.16180    0.77350    0.27350   1.00
O2       0.27350    0.72650    0.33820   1.00
O2       0.33820    0.72650    0.27350   1.00
O2       0.27350    0.66180    0.27350   1.00
O2       0.27350    0.83820    0.22650   1.00
O2       0.33820    0.77350    0.22650   1.00
O2       0.27350    0.77350    0.16180   1.00
O2       0.16180    0.72650    0.22650   1.00
O2       0.22650    0.66180    0.22650   1.00
O2       0.22650    0.72650    0.16180   1.00
C1       0.25000    0.75000    0.35520   1.00
C1       0.25000    0.85520    0.25000   1.00
C1       0.14480    0.75000    0.25000   1.00
C1       0.35520    0.75000    0.25000   1.00
C1       0.25000    0.64480    0.25000   1.00
C1       0.25000    0.75000    0.14480   1.00
O1       0.75000    0.25000    0.25000   1.00
Zn1      0.71720    0.28280    0.28280   1.00
Zn1      0.78280    0.21720    0.28280   1.00
Zn1      0.78280    0.28280    0.21720   1.00
Zn1      0.71720    0.21720    0.21720   1.00
O2       0.72650    0.27350    0.33820   1.00
O2       0.72650    0.33820    0.27350   1.00
O2       0.66180    0.27350    0.27350   1.00
O2       0.77350    0.22650    0.33820   1.00
O2       0.83820    0.22650    0.27350   1.00
O2       0.77350    0.16180    0.27350   1.00
O2       0.77350    0.33820    0.22650   1.00
O2       0.83820    0.27350    0.22650   1.00
O2       0.77350    0.27350    0.16180   1.00
O2       0.66180    0.22650    0.22650   1.00
O2       0.72650    0.16180    0.22650   1.00
O2       0.72650    0.22650    0.16180   1.00
C1       0.75000    0.25000    0.35520   1.00
C1       0.75000    0.35520    0.25000   1.00
C1       0.64480    0.25000    0.25000   1.00
C1       0.85520    0.25000    0.25000   1.00
C1       0.75000    0.14480    0.25000   1.00
C1       0.75000    0.25000    0.14480   1.00
O1       0.25000    0.25000    0.25000   1.00
Zn1      0.28280    0.21720    0.21720   1.00
Zn1      0.21720    0.28280    0.21720   1.00
Zn1      0.21720    0.21720    0.28280   1.00
Zn1      0.28280    0.28280    0.28280   1.00
O2       0.27350    0.22650    0.16180   1.00
O2       0.27350    0.16180    0.22650   1.00
O2       0.33820    0.22650    0.22650   1.00
O2       0.22650    0.27350    0.16180   1.00
O2       0.16180    0.27350    0.22650   1.00
O2       0.22650    0.33820    0.22650   1.00
O2       0.22650    0.16180    0.27350   1.00
O2       0.16180    0.22650    0.27350   1.00
O2       0.22650    0.22650    0.33820   1.00
O2       0.33820    0.27350    0.27350   1.00
O2       0.27350    0.33820    0.27350   1.00
O2       0.27350    0.27350    0.33820   1.00
C1       0.25000    0.25000    0.14480   1.00
C1       0.25000    0.14480    0.25000   1.00
C1       0.35520    0.25000    0.25000   1.00
C1       0.14480    0.25000    0.25000   1.00
C1       0.25000    0.35520    0.25000   1.00
C1       0.25000    0.25000    0.35520   1.00
O1       0.75000    0.75000    0.25000   1.00
Zn1      0.78280    0.71720    0.21720   1.00
Zn1      0.71720    0.78280    0.21720   1.00
Zn1      0.71720    0.71720    0.28280   1.00
Zn1      0.78280    0.78280    0.28280   1.00
O2       0.77350    0.72650    0.16180   1.00
O2       0.77350    0.66180    0.22650   1.00
O2       0.83820    0.72650    0.22650   1.00
O2       0.72650    0.77350    0.16180   1.00
O2       0.66180    0.77350    0.22650   1.00
O2       0.72650    0.83820    0.22650   1.00
O2       0.72650    0.66180    0.27350   1.00
O2       0.66180    0.72650    0.27350   1.00
O2       0.72650    0.72650    0.33820   1.00
O2       0.83820    0.77350    0.27350   1.00
O2       0.77350    0.83820    0.27350   1.00
O2       0.77350    0.77350    0.33820   1.00
C1       0.75000    0.75000    0.14480   1.00
C1       0.75000    0.64480    0.25000   1.00
C1       0.85520    0.75000    0.25000   1.00
C1       0.64480    0.75000    0.25000   1.00
C1       0.75000    0.85520    0.25000   1.00
C1       0.75000    0.75000    0.35520   1.00
O1       0.75000    0.25000    0.75000   1.00
Zn1      0.78280    0.21720    0.71720   1.00
Zn1      0.71720    0.28280    0.71720   1.00
Zn1      0.71720    0.21720    0.78280   1.00
Zn1      0.78280    0.28280    0.78280   1.00
O2       0.77350    0.22650    0.66180   1.00
O2       0.77350    0.16180    0.72650   1.00
O2       0.83820    0.22650    0.72650   1.00
O2       0.72650    0.27350    0.66180   1.00
O2       0.66180    0.27350    0.72650   1.00
O2       0.72650    0.33820    0.72650   1.00
O2       0.72650    0.16180    0.77350   1.00
O2       0.66180    0.22650    0.77350   1.00
O2       0.72650    0.22650    0.83820   1.00
O2       0.83820    0.27350    0.77350   1.00
O2       0.77350    0.33820    0.77350   1.00
O2       0.77350    0.27350    0.83820   1.00
C1       0.75000    0.25000    0.64480   1.00
C1       0.75000    0.14480    0.75000   1.00
C1       0.85520    0.25000    0.75000   1.00
C1       0.64480    0.25000    0.75000   1.00
C1       0.75000    0.35520    0.75000   1.00
C1       0.75000    0.25000    0.85520   1.00
O1       0.25000    0.75000    0.75000   1.00
Zn1      0.28280    0.71720    0.71720   1.00
Zn1      0.21720    0.78280    0.71720   1.00
Zn1      0.21720    0.71720    0.78280   1.00
Zn1      0.28280    0.78280    0.78280   1.00
O2       0.27350    0.72650    0.66180   1.00
O2       0.27350    0.66180    0.72650   1.00
O2       0.33820    0.72650    0.72650   1.00
O2       0.22650    0.77350    0.66180   1.00
O2       0.16180    0.77350    0.72650   1.00
O2       0.22650    0.83820    0.72650   1.00
O2       0.22650    0.66180    0.77350   1.00
O2       0.16180    0.72650    0.77350   1.00
O2       0.22650    0.72650    0.83820   1.00
O2       0.33820    0.77350    0.77350   1.00
O2       0.27350    0.83820    0.77350   1.00
O2       0.27350    0.77350    0.83820   1.00
C1       0.25000    0.75000    0.64480   1.00
C1       0.25000    0.64480    0.75000   1.00
C1       0.35520    0.75000    0.75000   1.00
C1       0.14480    0.75000    0.75000   1.00
C1       0.25000    0.85520    0.75000   1.00
C1       0.25000    0.75000    0.85520   1.00
O1       0.91500    0.91500    0.91500   1.00
Zn1      0.88220    0.94780    0.94780   1.00
Zn1      0.94780    0.88220    0.94780   1.00
Zn1      0.94780    0.94780    0.88220   1.00
Zn1      0.88220    0.88220    0.88220   1.00
O2       0.89150    0.93850    1.00320   1.00
O2       0.89150    1.00320    0.93850   1.00
O2       0.82680    0.93850    0.93850   1.00
O2       0.93850    0.89150    1.00320   1.00
O2       1.00320    0.89150    0.93850   1.00
O2       0.93850    0.82680    0.93850   1.00
O2       0.93850    1.00320    0.89150   1.00
O2       1.00320    0.93850    0.89150   1.00
O2       0.93850    0.93850    0.82680   1.00
O2       0.82680    0.89150    0.89150   1.00
O2       0.89150    0.82680    0.89150   1.00
O2       0.89150    0.89150    0.82680   1.00
C1       0.91500    0.91500    1.02020   1.00
C1       0.91500    1.02020    0.91500   1.00
C1       0.80980    0.91500    0.91500   1.00
C1       1.02020    0.91500    0.91500   1.00
C1       0.91500    0.80980    0.91500   1.00
C1       0.91500    0.91500    0.80980   1.00
O1       0.41500    0.41500    0.91500   1.00
Zn1      0.38220    0.44780    0.94780   1.00
Zn1      0.44780    0.38220    0.94780   1.00
Zn1      0.44780    0.44780    0.88220   1.00
Zn1      0.38220    0.38220    0.88220   1.00
O2       0.39150    0.43850    1.00320   1.00
O2       0.39150    0.50320    0.93850   1.00
O2       0.32680    0.43850    0.93850   1.00
O2       0.43850    0.39150    1.00320   1.00
O2       0.50320    0.39150    0.93850   1.00
O2       0.43850    0.32680    0.93850   1.00
O2       0.43850    0.50320    0.89150   1.00
O2       0.50320    0.43850    0.89150   1.00
O2       0.43850    0.43850    0.82680   1.00
O2       0.32680    0.39150    0.89150   1.00
O2       0.39150    0.32680    0.89150   1.00
O2       0.39150    0.39150    0.82680   1.00
C1       0.41500    0.41500    1.02020   1.00
C1       0.41500    0.52020    0.91500   1.00
C1       0.30980    0.41500    0.91500   1.00
C1       0.52020    0.41500    0.91500   1.00
C1       0.41500    0.30980    0.91500   1.00
C1       0.41500    0.41500    0.80980   1.00
O1       0.41500    0.91500    0.41500   1.00
Zn1      0.38220    0.94780    0.44780   1.00
Zn1      0.44780    0.88220    0.44780   1.00
Zn1      0.44780    0.94780    0.38220   1.00
Zn1      0.38220    0.88220    0.38220   1.00
O2       0.39150    0.93850    0.50320   1.00
O2       0.39150    1.00320    0.43850   1.00
O2       0.32680    0.93850    0.43850   1.00
O2       0.43850    0.89150    0.50320   1.00
O2       0.50320    0.89150    0.43850   1.00
O2       0.43850    0.82680    0.43850   1.00
O2       0.43850    1.00320    0.39150   1.00
O2       0.50320    0.93850    0.39150   1.00
O2       0.43850    0.93850    0.32680   1.00
O2       0.32680    0.89150    0.39150   1.00
O2       0.39150    0.82680    0.39150   1.00
O2       0.39150    0.89150    0.32680   1.00
C1       0.41500    0.91500    0.52020   1.00
C1       0.41500    1.02020    0.41500   1.00
C1       0.30980    0.91500    0.41500   1.00
C1       0.52020    0.91500    0.41500   1.00
C1       0.41500    0.80980    0.41500   1.00
C1       0.41500    0.91500    0.30980   1.00
O1       0.91500    0.41500    0.41500   1.00
Zn1      0.88220    0.44780    0.44780   1.00
Zn1      0.94780    0.38220    0.44780   1.00
Zn1      0.94780    0.44780    0.38220   1.00
Zn1      0.88220    0.38220    0.38220   1.00
O2       0.89150    0.43850    0.50320   1.00
O2       0.89150    0.50320    0.43850   1.00
O2       0.82680    0.43850    0.43850   1.00
O2       0.93850    0.39150    0.50320   1.00
O2       1.00320    0.39150    0.43850   1.00
O2       0.93850    0.32680    0.43850   1.00
O2       0.93850    0.50320    0.39150   1.00
O2       1.00320    0.43850    0.39150   1.00
O2       0.93850    0.43850    0.32680   1.00
O2       0.82680    0.39150    0.39150   1.00
O2       0.89150    0.32680    0.39150   1.00
O2       0.89150    0.39150    0.32680   1.00
C1       0.91500    0.41500    0.52020   1.00
C1       0.91500    0.52020    0.41500   1.00
C1       0.80980    0.41500    0.41500   1.00
C1       1.02020    0.41500    0.41500   1.00
C1       0.91500    0.30980    0.41500   1.00
C1       0.91500    0.41500    0.30980   1.00
O1       0.41500    0.41500    0.41500   1.00
Zn1      0.44780    0.38220    0.38220   1.00
Zn1      0.38220    0.44780    0.38220   1.00
Zn1      0.38220    0.38220    0.44780   1.00
Zn1      0.44780    0.44780    0.44780   1.00
O2       0.43850    0.39150    0.32680   1.00
O2       0.43850    0.32680    0.39150   1.00
O2       0.50320    0.39150    0.39150   1.00
O2       0.39150    0.43850    0.32680   1.00
O2       0.32680    0.43850    0.39150   1.00
O2       0.39150    0.50320    0.39150   1.00
O2       0.39150    0.32680    0.43850   1.00
O2       0.32680    0.39150    0.43850   1.00
O2       0.39150    0.39150    0.50320   1.00
O2       0.50320    0.43850    0.43850   1.00
O2       0.43850    0.50320    0.43850   1.00
O2       0.43850    0.43850    0.50320   1.00
C1       0.41500    0.41500    0.30980   1.00
C1       0.41500    0.30980    0.41500   1.00
C1       0.52020    0.41500    0.41500   1.00
C1       0.30980    0.41500    0.41500   1.00
C1       0.41500    0.52020    0.41500   1.00
C1       0.41500    0.41500    0.52020   1.00
O1       0.91500    0.91500    0.41500   1.00
Zn1      0.94780    0.88220    0.38220   1.00
Zn1      0.88220    0.94780    0.38220   1.00
Zn1      0.88220    0.88220    0.44780   1.00
Zn1      0.94780    0.94780    0.44780   1.00
O2       0.93850    0.89150    0.32680   1.00
O2       0.93850    0.82680    0.39150   1.00
O2       1.00320    0.89150    0.39150   1.00
O2       0.89150    0.93850    0.32680   1.00
O2       0.82680    0.93850    0.39150   1.00
O2       0.89150    1.00320    0.39150   1.00
O2       0.89150    0.82680    0.43850   1.00
O2       0.82680    0.89150    0.43850   1.00
O2       0.89150    0.89150    0.50320   1.00
O2       1.00320    0.93850    0.43850   1.00
O2       0.93850    1.00320    0.43850   1.00
O2       0.93850    0.93850    0.50320   1.00
C1       0.91500    0.91500    0.30980   1.00
C1       0.91500    0.80980    0.41500   1.00
C1       1.02020    0.91500    0.41500   1.00
C1       0.80980    0.91500    0.41500   1.00
C1       0.91500    1.02020    0.41500   1.00
C1       0.91500    0.91500    0.52020   1.00
O1       0.91500    0.41500    0.91500   1.00
Zn1      0.94780    0.38220    0.88220   1.00
Zn1      0.88220    0.44780    0.88220   1.00
Zn1      0.88220    0.38220    0.94780   1.00
Zn1      0.94780    0.44780    0.94780   1.00
O2       0.93850    0.39150    0.82680   1.00
O2       0.93850    0.32680    0.89150   1.00
O2       1.00320    0.39150    0.89150   1.00
O2       0.89150    0.43850    0.82680   1.00
O2       0.82680    0.43850    0.89150   1.00
O2       0.89150    0.50320    0.89150   1.00
O2       0.89150    0.32680    0.93850   1.00
O2       0.82680    0.39150    0.93850   1.00
O2       0.89150    0.39150    1.00320   1.00
O2       1.00320    0.43850    0.93850   1.00
O2       0.93850    0.50320    0.93850   1.00
O2       0.93850    0.43850    1.00320   1.00
C1       0.91500    0.41500    0.80980   1.00
C1       0.91500    0.30980    0.91500   1.00
C1       1.02020    0.41500    0.91500   1.00
C1       0.80980    0.41500    0.91500   1.00
C1       0.91500    0.52020    0.91500   1.00
C1       0.91500    0.41500    1.02020   1.00
O1       0.41500    0.91500    0.91500   1.00
Zn1      0.44780    0.88220    0.88220   1.00
Zn1      0.38220    0.94780    0.88220   1.00
Zn1      0.38220    0.88220    0.94780   1.00
Zn1      0.44780    0.94780    0.94780   1.00
O2       0.43850    0.89150    0.82680   1.00
O2       0.43850    0.82680    0.89150   1.00
O2       0.50320    0.89150    0.89150   1.00
O2       0.39150    0.93850    0.82680   1.00
O2       0.32680    0.93850    0.89150   1.00
O2       0.39150    1.00320    0.89150   1.00
O2       0.39150    0.82680    0.93850   1.00
O2       0.32680    0.89150    0.93850   1.00
O2       0.39150    0.89150    1.00320   1.00
O2       0.50320    0.93850    0.93850   1.00
O2       0.43850    1.00320    0.93850   1.00
O2       0.43850    0.93850    1.00320   1.00
C1       0.41500    0.91500    0.80980   1.00
C1       0.41500    0.80980    0.91500   1.00
C1       0.52020    0.91500    0.91500   1.00
C1       0.30980    0.91500    0.91500   1.00
C1       0.41500    1.02020    0.91500   1.00
C1       0.41500    0.91500    1.02020   1.00
C4       0.75006    0.75038    0.97915   1.00
C4       0.74994    0.74962    1.02085   1.00
C3       0.78448    0.75769    0.95751   1.00
C3       0.78073    0.73271    1.04252   1.00
C3       0.71575    0.74297    0.95738   1.00
C3       0.71922    0.76665    1.04259   1.00
C2       0.75016    0.74997    0.89482   1.00
C2       0.75016    0.74997    1.10518   1.00
C3a      0.78468    0.75753    0.91599   1.00
C3       0.78076    0.73290    1.08382   1.00
C3       0.71586    0.74278    0.91611   1.00
C3a      0.71914    0.76691    1.08403   1.00
H1       0.81134    0.76386    0.97294   1.00
H1       0.80484    0.71888    1.02750   1.00
C5       0.82187    0.76563    0.89410   1.00
H1       0.80486    0.71961    1.09933   1.00
H1       0.68905    0.73669    0.90056   1.00
C5       0.68553    0.78548    1.10535   1.00
H1       0.69549    0.78097    1.02747   1.00
H1       0.68868    0.73647    0.97230   1.00
H2       0.65848    0.76900    1.09837   1.00
H2       0.68972    0.78380    1.13747   1.00
N1       0.68132    0.82640    1.09395   1.00
C6       0.67243    0.83977    1.05810   1.00
C6       0.68527    0.85755    1.11757   1.00
C6       0.67085    0.87998    1.05873   1.00
C6       0.67902    0.89129    1.09656   1.00
H3       0.66733    0.82152    1.03281   1.00
H3       0.69241    0.85595    1.14831   1.00
H3       0.66440    0.89896    1.03436   1.00
H3       0.68025    0.92081    1.10758   1.00
H2       0.81597    0.76357    0.86228   1.00
H2       0.83264    0.79562    0.90001   1.00
N1       0.85198    0.73764    0.90523   1.00
C6       0.87124    0.71033    0.88078   1.00
C6       0.86843    0.73214    0.94285   1.00
C6       0.89781    0.68951    0.90277   1.00
C6       0.89608    0.70289    0.94091   1.00
H3       0.86571    0.70657    0.84992   1.00
H3       0.86011    0.74818    0.96876   1.00
H3       0.91669    0.66663    0.89205   1.00
H3       0.91333    0.69220    0.96505   1.00
C4       0.75038    0.97915    0.75006   1.00
C4       0.74962    1.02085    0.74994   1.00
C3       0.75769    0.95751    0.78448   1.00
C3       0.73271    1.04252    0.78073   1.00
C3       0.74297    0.95738    0.71575   1.00
C3       0.76665    1.04259    0.71922   1.00
C2       0.74997    0.89482    0.75016   1.00
C2       0.74997    1.10518    0.75016   1.00
C3a      0.75753    0.91599    0.78468   1.00
C3       0.73290    1.08382    0.78076   1.00
C3       0.74278    0.91611    0.71586   1.00
C3a      0.76691    1.08403    0.71914   1.00
H1       0.76386    0.97294    0.81134   1.00
H1       0.71888    1.02750    0.80484   1.00
C5       0.76563    0.89410    0.82187   1.00
H1       0.71961    1.09933    0.80486   1.00
H1       0.73669    0.90056    0.68905   1.00
C5       0.78548    1.10535    0.68553   1.00
H1       0.78097    1.02747    0.69549   1.00
H1       0.73647    0.97230    0.68868   1.00
H2       0.76900    1.09837    0.65848   1.00
H2       0.78380    1.13747    0.68972   1.00
N1       0.82640    1.09395    0.68132   1.00
C6       0.83977    1.05810    0.67243   1.00
C6       0.85755    1.11757    0.68527   1.00
C6       0.87998    1.05873    0.67085   1.00
C6       0.89129    1.09656    0.67902   1.00
H3       0.82152    1.03281    0.66733   1.00
H3       0.85595    1.14831    0.69241   1.00
H3       0.89896    1.03436    0.66440   1.00
H3       0.92081    1.10758    0.68025   1.00
H2       0.76357    0.86228    0.81597   1.00
H2       0.79562    0.90001    0.83264   1.00
N1       0.73764    0.90523    0.85198   1.00
C6       0.71033    0.88078    0.87124   1.00
C6       0.73214    0.94285    0.86843   1.00
C6       0.68951    0.90277    0.89781   1.00
C6       0.70289    0.94091    0.89608   1.00
H3       0.70657    0.84992    0.86571   1.00
H3       0.74818    0.96876    0.86011   1.00
H3       0.66663    0.89205    0.91669   1.00
H3       0.69220    0.96505    0.91333   1.00
C4       0.52085    0.75006    0.74962   1.00
C4       0.47915    0.74994    0.75038   1.00
C3       0.54249    0.78448    0.74231   1.00
C3       0.45748    0.78073    0.76729   1.00
C3       0.54262    0.71575    0.75703   1.00
C3       0.45741    0.71922    0.73335   1.00
C2       0.60518    0.75016    0.75003   1.00
C2       0.39482    0.75016    0.75003   1.00
C3a      0.58401    0.78468    0.74247   1.00
C3       0.41618    0.78076    0.76710   1.00
C3       0.58389    0.71586    0.75722   1.00
C3a      0.41597    0.71914    0.73309   1.00
H1       0.52706    0.81134    0.73614   1.00
H1       0.47250    0.80484    0.78112   1.00
C5       0.60590    0.82187    0.73437   1.00
H1       0.40067    0.80486    0.78039   1.00
H1       0.59944    0.68905    0.76331   1.00
C5       0.39465    0.68553    0.71452   1.00
H1       0.47253    0.69549    0.71903   1.00
H1       0.52770    0.68868    0.76353   1.00
H2       0.40163    0.65848    0.73100   1.00
H2       0.36253    0.68972    0.71620   1.00
N1       0.40605    0.68132    0.67360   1.00
C6       0.44190    0.67243    0.66023   1.00
C6       0.38243    0.68527    0.64245   1.00
C6       0.44127    0.67085    0.62002   1.00
C6       0.40344    0.67902    0.60871   1.00
H3       0.46719    0.66733    0.67848   1.00
H3       0.35169    0.69241    0.64405   1.00
H3       0.46564    0.66440    0.60104   1.00
H3       0.39242    0.68025    0.57919   1.00
H2       0.63772    0.81597    0.73643   1.00
H2       0.59999    0.83264    0.70438   1.00
N1       0.59477    0.85198    0.76236   1.00
C6       0.61922    0.87124    0.78967   1.00
C6       0.55715    0.86843    0.76786   1.00
C6       0.59723    0.89781    0.81049   1.00
C6       0.55909    0.89608    0.79711   1.00
H3       0.65008    0.86571    0.79343   1.00
H3       0.53124    0.86011    0.75182   1.00
H3       0.60795    0.91669    0.83337   1.00
H3       0.53495    0.91333    0.80780   1.00
C4       0.97915    0.75006    0.75038   1.00
C4       1.02085    0.74994    0.74962   1.00
C3       0.95751    0.78448    0.75769   1.00
C3       1.04252    0.78073    0.73271   1.00
C3       0.95738    0.71575    0.74297   1.00
C3       1.04259    0.71922    0.76665   1.00
C2       0.89482    0.75016    0.74997   1.00
C2       1.10518    0.75016    0.74997   1.00
C3a      0.91599    0.78468    0.75753   1.00
C3       1.08382    0.78076    0.73290   1.00
C3       0.91611    0.71586    0.74278   1.00
C3a      1.08403    0.71914    0.76691   1.00
H1       0.97294    0.81134    0.76386   1.00
H1       1.02750    0.80484    0.71888   1.00
C5       0.89410    0.82187    0.76563   1.00
H1       1.09933    0.80486    0.71961   1.00
H1       0.90056    0.68905    0.73669   1.00
C5       1.10535    0.68553    0.78548   1.00
H1       1.02747    0.69549    0.78097   1.00
H1       0.97230    0.68868    0.73647   1.00
H2       1.09837    0.65848    0.76900   1.00
H2       1.13747    0.68972    0.78380   1.00
N1       1.09395    0.68132    0.82640   1.00
C6       1.05810    0.67243    0.83977   1.00
C6       1.11757    0.68527    0.85755   1.00
C6       1.05873    0.67085    0.87998   1.00
C6       1.09656    0.67902    0.89129   1.00
H3       1.03281    0.66733    0.82152   1.00
H3       1.14831    0.69241    0.85595   1.00
H3       1.03436    0.66440    0.89896   1.00
H3       1.10758    0.68025    0.92081   1.00
H2       0.86228    0.81597    0.76357   1.00
H2       0.90001    0.83264    0.79562   1.00
N1       0.90523    0.85198    0.73764   1.00
C6       0.88078    0.87124    0.71033   1.00
C6       0.94285    0.86843    0.73214   1.00
C6       0.90277    0.89781    0.68951   1.00
C6       0.94091    0.89608    0.70289   1.00
H3       0.84992    0.86571    0.70657   1.00
H3       0.96876    0.86011    0.74818   1.00
H3       0.89205    0.91669    0.66663   1.00
H3       0.96505    0.91333    0.69220   1.00
C4       0.74962    0.52085    0.75006   1.00
C4       0.75038    0.47915    0.74994   1.00
C3       0.74231    0.54249    0.78448   1.00
C3       0.76729    0.45748    0.78073   1.00
C3       0.75703    0.54262    0.71575   1.00
C3       0.73335    0.45741    0.71922   1.00
C2       0.75003    0.60518    0.75016   1.00
C2       0.75003    0.39482    0.75016   1.00
C3a      0.74247    0.58401    0.78468   1.00
C3       0.76710    0.41618    0.78076   1.00
C3       0.75722    0.58389    0.71586   1.00
C3a      0.73309    0.41597    0.71914   1.00
H1       0.73614    0.52706    0.81134   1.00
H1       0.78112    0.47250    0.80484   1.00
C5       0.73437    0.60590    0.82187   1.00
H1       0.78039    0.40067    0.80486   1.00
H1       0.76331    0.59944    0.68905   1.00
C5       0.71452    0.39465    0.68553   1.00
H1       0.71903    0.47253    0.69549   1.00
H1       0.76353    0.52770    0.68868   1.00
H2       0.73100    0.40163    0.65848   1.00
H2       0.71620    0.36253    0.68972   1.00
N1       0.67360    0.40605    0.68132   1.00
C6       0.66023    0.44190    0.67243   1.00
C6       0.64245    0.38243    0.68527   1.00
C6       0.62002    0.44127    0.67085   1.00
C6       0.60871    0.40344    0.67902   1.00
H3       0.67848    0.46719    0.66733   1.00
H3       0.64405    0.35169    0.69241   1.00
H3       0.60104    0.46564    0.66440   1.00
H3       0.57919    0.39242    0.68025   1.00
H2       0.73643    0.63772    0.81597   1.00
H2       0.70438    0.59999    0.83264   1.00
N1       0.76236    0.59477    0.85198   1.00
C6       0.78967    0.61922    0.87124   1.00
C6       0.76786    0.55715    0.86843   1.00
C6       0.81049    0.59723    0.89781   1.00
C6       0.79711    0.55909    0.89608   1.00
H3       0.79343    0.65008    0.86571   1.00
H3       0.75182    0.53124    0.86011   1.00
H3       0.83337    0.60795    0.91669   1.00
H3       0.80780    0.53495    0.91333   1.00
C4       0.75006    0.74962    0.52085   1.00
C4       0.74994    0.75038    0.47915   1.00
C3       0.78448    0.74231    0.54249   1.00
C3       0.78073    0.76729    0.45748   1.00
C3       0.71575    0.75703    0.54262   1.00
C3       0.71922    0.73335    0.45741   1.00
C2       0.75016    0.75003    0.60518   1.00
C2       0.75016    0.75003    0.39482   1.00
C3a      0.78468    0.74247    0.58401   1.00
C3       0.78076    0.76710    0.41618   1.00
C3       0.71586    0.75722    0.58389   1.00
C3a      0.71914    0.73309    0.41597   1.00
H1       0.81134    0.73614    0.52706   1.00
H1       0.80484    0.78112    0.47250   1.00
C5       0.82187    0.73437    0.60590   1.00
H1       0.80486    0.78039    0.40067   1.00
H1       0.68905    0.76331    0.59944   1.00
C5       0.68553    0.71452    0.39465   1.00
H1       0.69549    0.71903    0.47253   1.00
H1       0.68868    0.76353    0.52770   1.00
H2       0.65848    0.73100    0.40163   1.00
H2       0.68972    0.71620    0.36253   1.00
N1       0.68132    0.67360    0.40605   1.00
C6       0.67243    0.66023    0.44190   1.00
C6       0.68527    0.64245    0.38243   1.00
C6       0.67085    0.62002    0.44127   1.00
C6       0.67902    0.60871    0.40344   1.00
H3       0.66733    0.67848    0.46719   1.00
H3       0.69241    0.64405    0.35169   1.00
H3       0.66440    0.60104    0.46564   1.00
H3       0.68025    0.57919    0.39242   1.00
H2       0.81597    0.73643    0.63772   1.00
H2       0.83264    0.70438    0.59999   1.00
N1       0.85198    0.76236    0.59477   1.00
C6       0.87124    0.78967    0.61922   1.00
C6       0.86843    0.76786    0.55715   1.00
C6       0.89781    0.81049    0.59723   1.00
C6       0.89608    0.79711    0.55909   1.00
H3       0.86571    0.79343    0.65008   1.00
H3       0.86011    0.75182    0.53124   1.00
H3       0.91669    0.83337    0.60795   1.00
H3       0.91333    0.80780    0.53495   1.00
C4       0.25006    0.25038    0.97915   1.00
C4       0.24994    0.24962    1.02085   1.00
C3       0.28448    0.25769    0.95751   1.00
C3       0.28073    0.23271    1.04252   1.00
C3       0.21575    0.24297    0.95738   1.00
C3       0.21922    0.26665    1.04259   1.00
C2       0.25016    0.24997    0.89482   1.00
C2       0.25016    0.24997    1.10518   1.00
C3a      0.28468    0.25753    0.91599   1.00
C3       0.28076    0.23290    1.08382   1.00
C3       0.21586    0.24278    0.91611   1.00
C3a      0.21914    0.26691    1.08403   1.00
H1       0.31134    0.26386    0.97294   1.00
H1       0.30484    0.21888    1.02750   1.00
C5       0.32187    0.26563    0.89410   1.00
H1       0.30486    0.21961    1.09933   1.00
H1       0.18905    0.23669    0.90056   1.00
C5       0.18553    0.28548    1.10535   1.00
H1       0.19549    0.28097    1.02747   1.00
H1       0.18868    0.23647    0.97230   1.00
H2       0.15848    0.26900    1.09837   1.00
H2       0.18972    0.28380    1.13747   1.00
N1       0.18132    0.32640    1.09395   1.00
C6       0.17243    0.33977    1.05810   1.00
C6       0.18527    0.35755    1.11757   1.00
C6       0.17085    0.37998    1.05873   1.00
C6       0.17902    0.39129    1.09656   1.00
H3       0.16733    0.32152    1.03281   1.00
H3       0.19241    0.35595    1.14831   1.00
H3       0.16440    0.39896    1.03436   1.00
H3       0.18025    0.42081    1.10758   1.00
H2       0.31597    0.26357    0.86228   1.00
H2       0.33264    0.29562    0.90001   1.00
N1       0.35198    0.23764    0.90523   1.00
C6       0.37124    0.21033    0.88078   1.00
C6       0.36843    0.23214    0.94285   1.00
C6       0.39781    0.18951    0.90277   1.00
C6       0.39608    0.20289    0.94091   1.00
H3       0.36571    0.20657    0.84992   1.00
H3       0.36011    0.24818    0.96876   1.00
H3       0.41669    0.16663    0.89205   1.00
H3       0.41333    0.19220    0.96505   1.00
C4       0.25038    0.47915    0.75006   1.00
C4       0.24962    0.52085    0.74994   1.00
C3       0.25769    0.45751    0.78448   1.00
C3       0.23271    0.54252    0.78073   1.00
C3       0.24297    0.45738    0.71575   1.00
C3       0.26665    0.54259    0.71922   1.00
C2       0.24997    0.39482    0.75016   1.00
C2       0.24997    0.60518    0.75016   1.00
C3a      0.25753    0.41599    0.78468   1.00
C3       0.23290    0.58382    0.78076   1.00
C3       0.24278    0.41611    0.71586   1.00
C3a      0.26691    0.58403    0.71914   1.00
H1       0.26386    0.47294    0.81134   1.00
H1       0.21888    0.52750    0.80484   1.00
C5       0.26563    0.39410    0.82187   1.00
H1       0.21961    0.59933    0.80486   1.00
H1       0.23669    0.40056    0.68905   1.00
C5       0.28548    0.60535    0.68553   1.00
H1       0.28097    0.52747    0.69549   1.00
H1       0.23647    0.47230    0.68868   1.00
H2       0.26900    0.59837    0.65848   1.00
H2       0.28380    0.63747    0.68972   1.00
N1       0.32640    0.59395    0.68132   1.00
C6       0.33977    0.55810    0.67243   1.00
C6       0.35755    0.61757    0.68527   1.00
C6       0.37998    0.55873    0.67085   1.00
C6       0.39129    0.59656    0.67902   1.00
H3       0.32152    0.53281    0.66733   1.00
H3       0.35595    0.64831    0.69241   1.00
H3       0.39896    0.53436    0.66440   1.00
H3       0.42081    0.60758    0.68025   1.00
H2       0.26357    0.36228    0.81597   1.00
H2       0.29562    0.40001    0.83264   1.00
N1       0.23764    0.40523    0.85198   1.00
C6       0.21033    0.38078    0.87124   1.00
C6       0.23214    0.44285    0.86843   1.00
C6       0.18951    0.40277    0.89781   1.00
C6       0.20289    0.44091    0.89608   1.00
H3       0.20657    0.34992    0.86571   1.00
H3       0.24818    0.46876    0.86011   1.00
H3       0.16663    0.39205    0.91669   1.00
H3       0.19220    0.46505    0.91333   1.00
C4       0.02085    0.25006    0.74962   1.00
C4       -0.02085   0.24994    0.75038   1.00
C3       0.04249    0.28448    0.74231   1.00
C3       -0.04252   0.28073    0.76729   1.00
C3       0.04262    0.21575    0.75703   1.00
C3       -0.04259   0.21922    0.73335   1.00
C2       0.10518    0.25016    0.75003   1.00
C2       -0.10518   0.25016    0.75003   1.00
C3a      0.08401    0.28468    0.74247   1.00
C3       -0.08382   0.28076    0.76710   1.00
C3       0.08389    0.21586    0.75722   1.00
C3a      -0.08403   0.21914    0.73309   1.00
H1       0.02706    0.31134    0.73614   1.00
H1       -0.02750   0.30484    0.78112   1.00
C5       0.10590    0.32187    0.73437   1.00
H1       -0.09933   0.30486    0.78039   1.00
H1       0.09944    0.18905    0.76331   1.00
C5       -0.10535   0.18553    0.71452   1.00
H1       -0.02747   0.19549    0.71903   1.00
H1       0.02770    0.18868    0.76353   1.00
H2       -0.09837   0.15848    0.73100   1.00
H2       -0.13747   0.18972    0.71620   1.00
N1       -0.09395   0.18132    0.67360   1.00
C6       -0.05810   0.17243    0.66023   1.00
C6       -0.11757   0.18527    0.64245   1.00
C6       -0.05873   0.17085    0.62002   1.00
C6       -0.09656   0.17902    0.60871   1.00
H3       -0.03281   0.16733    0.67848   1.00
H3       -0.14831   0.19241    0.64405   1.00
H3       -0.03436   0.16440    0.60104   1.00
H3       -0.10758   0.18025    0.57919   1.00
H2       0.13772    0.31597    0.73643   1.00
H2       0.09999    0.33264    0.70438   1.00
N1       0.09477    0.35198    0.76236   1.00
C6       0.11922    0.37124    0.78967   1.00
C6       0.05715    0.36843    0.76786   1.00
C6       0.09723    0.39781    0.81049   1.00
C6       0.05909    0.39608    0.79711   1.00
H3       0.15008    0.36571    0.79343   1.00
H3       0.03124    0.36011    0.75182   1.00
H3       0.10795    0.41669    0.83337   1.00
H3       0.03495    0.41333    0.80780   1.00
C4       0.47915    0.25006    0.75038   1.00
C4       0.52085    0.24994    0.74962   1.00
C3       0.45751    0.28448    0.75769   1.00
C3       0.54252    0.28073    0.73271   1.00
C3       0.45738    0.21575    0.74297   1.00
C3       0.54259    0.21922    0.76665   1.00
C2       0.39482    0.25016    0.74997   1.00
C2       0.60518    0.25016    0.74997   1.00
C3a      0.41599    0.28468    0.75753   1.00
C3       0.58382    0.28076    0.73290   1.00
C3       0.41611    0.21586    0.74278   1.00
C3a      0.58403    0.21914    0.76691   1.00
H1       0.47294    0.31134    0.76386   1.00
H1       0.52750    0.30484    0.71888   1.00
C5       0.39410    0.32187    0.76563   1.00
H1       0.59933    0.30486    0.71961   1.00
H1       0.40056    0.18905    0.73669   1.00
C5       0.60535    0.18553    0.78548   1.00
H1       0.52747    0.19549    0.78097   1.00
H1       0.47230    0.18868    0.73647   1.00
H2       0.59837    0.15848    0.76900   1.00
H2       0.63747    0.18972    0.78380   1.00
N1       0.59395    0.18132    0.82640   1.00
C6       0.55810    0.17243    0.83977   1.00
C6       0.61757    0.18527    0.85755   1.00
C6       0.55873    0.17085    0.87998   1.00
C6       0.59656    0.17902    0.89129   1.00
H3       0.53281    0.16733    0.82152   1.00
H3       0.64831    0.19241    0.85595   1.00
H3       0.53436    0.16440    0.89896   1.00
H3       0.60758    0.18025    0.92081   1.00
H2       0.36228    0.31597    0.76357   1.00
H2       0.40001    0.33264    0.79562   1.00
N1       0.40523    0.35198    0.73764   1.00
C6       0.38078    0.37124    0.71033   1.00
C6       0.44285    0.36843    0.73214   1.00
C6       0.40277    0.39781    0.68951   1.00
C6       0.44091    0.39608    0.70289   1.00
H3       0.34992    0.36571    0.70657   1.00
H3       0.46876    0.36011    0.74818   1.00
H3       0.39205    0.41669    0.66663   1.00
H3       0.46505    0.41333    0.69220   1.00
C4       0.24962    0.02085    0.75006   1.00
C4       0.25038    -0.02085   0.74994   1.00
C3       0.24231    0.04249    0.78448   1.00
C3       0.26729    -0.04252   0.78073   1.00
C3       0.25703    0.04262    0.71575   1.00
C3       0.23335    -0.04259   0.71922   1.00
C2       0.25003    0.10518    0.75016   1.00
C2       0.25003    -0.10518   0.75016   1.00
C3a      0.24247    0.08401    0.78468   1.00
C3       0.26710    -0.08382   0.78076   1.00
C3       0.25722    0.08389    0.71586   1.00
C3a      0.23309    -0.08403   0.71914   1.00
H1       0.23614    0.02706    0.81134   1.00
H1       0.28112    -0.02750   0.80484   1.00
C5       0.23437    0.10590    0.82187   1.00
H1       0.28039    -0.09933   0.80486   1.00
H1       0.26331    0.09944    0.68905   1.00
C5       0.21452    -0.10535   0.68553   1.00
H1       0.21903    -0.02747   0.69549   1.00
H1       0.26353    0.02770    0.68868   1.00
H2       0.23100    -0.09837   0.65848   1.00
H2       0.21620    -0.13747   0.68972   1.00
N1       0.17360    -0.09395   0.68132   1.00
C6       0.16023    -0.05810   0.67243   1.00
C6       0.14245    -0.11757   0.68527   1.00
C6       0.12002    -0.05873   0.67085   1.00
C6       0.10871    -0.09656   0.67902   1.00
H3       0.17848    -0.03281   0.66733   1.00
H3       0.14405    -0.14831   0.69241   1.00
H3       0.10104    -0.03436   0.66440   1.00
H3       0.07919    -0.10758   0.68025   1.00
H2       0.23643    0.13772    0.81597   1.00
H2       0.20438    0.09999    0.83264   1.00
N1       0.26236    0.09477    0.85198   1.00
C6       0.28967    0.11922    0.87124   1.00
C6       0.26786    0.05715    0.86843   1.00
C6       0.31049    0.09723    0.89781   1.00
C6       0.29711    0.05909    0.89608   1.00
H3       0.29343    0.15008    0.86571   1.00
H3       0.25182    0.03124    0.86011   1.00
H3       0.33337    0.10795    0.91669   1.00
H3       0.30780    0.03495    0.91333   1.00
C4       0.25006    0.24962    0.52085   1.00
C4       0.24994    0.25038    0.47915   1.00
C3       0.28448    0.24231    0.54249   1.00
C3       0.28073    0.26729    0.45748   1.00
C3       0.21575    0.25703    0.54262   1.00
C3       0.21922    0.23335    0.45741   1.00
C2       0.25016    0.25003    0.60518   1.00
C2       0.25016    0.25003    0.39482   1.00
C3a      0.28468    0.24247    0.58401   1.00
C3       0.28076    0.26710    0.41618   1.00
C3       0.21586    0.25722    0.58389   1.00
C3a      0.21914    0.23309    0.41597   1.00
H1       0.31134    0.23614    0.52706   1.00
H1       0.30484    0.28112    0.47250   1.00
C5       0.32187    0.23437    0.60590   1.00
H1       0.30486    0.28039    0.40067   1.00
H1       0.18905    0.26331    0.59944   1.00
C5       0.18553    0.21452    0.39465   1.00
H1       0.19549    0.21903    0.47253   1.00
H1       0.18868    0.26353    0.52770   1.00
H2       0.15848    0.23100    0.40163   1.00
H2       0.18972    0.21620    0.36253   1.00
N1       0.18132    0.17360    0.40605   1.00
C6       0.17243    0.16023    0.44190   1.00
C6       0.18527    0.14245    0.38243   1.00
C6       0.17085    0.12002    0.44127   1.00
C6       0.17902    0.10871    0.40344   1.00
H3       0.16733    0.17848    0.46719   1.00
H3       0.19241    0.14405    0.35169   1.00
H3       0.16440    0.10104    0.46564   1.00
H3       0.18025    0.07919    0.39242   1.00
H2       0.31597    0.23643    0.63772   1.00
H2       0.33264    0.20438    0.59999   1.00
N1       0.35198    0.26236    0.59477   1.00
C6       0.37124    0.28967    0.61922   1.00
C6       0.36843    0.26786    0.55715   1.00
C6       0.39781    0.31049    0.59723   1.00
C6       0.39608    0.29711    0.55909   1.00
H3       0.36571    0.29343    0.65008   1.00
H3       0.36011    0.25182    0.53124   1.00
H3       0.41669    0.33337    0.60795   1.00
H3       0.41333    0.30780    0.53495   1.00
C4       0.25006    0.75038    0.47915   1.00
C4       0.24994    0.74962    0.52085   1.00
C3       0.28448    0.75769    0.45751   1.00
C3       0.28073    0.73271    0.54252   1.00
C3       0.21575    0.74297    0.45738   1.00
C3       0.21922    0.76665    0.54259   1.00
C2       0.25016    0.74997    0.39482   1.00
C2       0.25016    0.74997    0.60518   1.00
C3a      0.28468    0.75753    0.41599   1.00
C3       0.28076    0.73290    0.58382   1.00
C3       0.21586    0.74278    0.41611   1.00
C3a      0.21914    0.76691    0.58403   1.00
H1       0.31134    0.76386    0.47294   1.00
H1       0.30484    0.71888    0.52750   1.00
C5       0.32187    0.76563    0.39410   1.00
H1       0.30486    0.71961    0.59933   1.00
H1       0.18905    0.73669    0.40056   1.00
C5       0.18553    0.78548    0.60535   1.00
H1       0.19549    0.78097    0.52747   1.00
H1       0.18868    0.73647    0.47230   1.00
H2       0.15848    0.76900    0.59837   1.00
H2       0.18972    0.78380    0.63747   1.00
N1       0.18132    0.82640    0.59395   1.00
C6       0.17243    0.83977    0.55810   1.00
C6       0.18527    0.85755    0.61757   1.00
C6       0.17085    0.87998    0.55873   1.00
C6       0.17902    0.89129    0.59656   1.00
H3       0.16733    0.82152    0.53281   1.00
H3       0.19241    0.85595    0.64831   1.00
H3       0.16440    0.89896    0.53436   1.00
H3       0.18025    0.92081    0.60758   1.00
H2       0.31597    0.76357    0.36228   1.00
H2       0.33264    0.79562    0.40001   1.00
N1       0.35198    0.73764    0.40523   1.00
C6       0.37124    0.71033    0.38078   1.00
C6       0.36843    0.73214    0.44285   1.00
C6       0.39781    0.68951    0.40277   1.00
C6       0.39608    0.70289    0.44091   1.00
H3       0.36571    0.70657    0.34992   1.00
H3       0.36011    0.74818    0.46876   1.00
H3       0.41669    0.66663    0.39205   1.00
H3       0.41333    0.69220    0.46505   1.00
C4       0.25038    0.97915    0.25006   1.00
C4       0.24962    1.02085    0.24994   1.00
C3       0.25769    0.95751    0.28448   1.00
C3       0.23271    1.04252    0.28073   1.00
C3       0.24297    0.95738    0.21575   1.00
C3       0.26665    1.04259    0.21922   1.00
C2       0.24997    0.89482    0.25016   1.00
C2       0.24997    1.10518    0.25016   1.00
C3a      0.25753    0.91599    0.28468   1.00
C3       0.23290    1.08382    0.28076   1.00
C3       0.24278    0.91611    0.21586   1.00
C3a      0.26691    1.08403    0.21914   1.00
H1       0.26386    0.97294    0.31134   1.00
H1       0.21888    1.02750    0.30484   1.00
C5       0.26563    0.89410    0.32187   1.00
H1       0.21961    1.09933    0.30486   1.00
H1       0.23669    0.90056    0.18905   1.00
C5       0.28548    1.10535    0.18553   1.00
H1       0.28097    1.02747    0.19549   1.00
H1       0.23647    0.97230    0.18868   1.00
H2       0.26900    1.09837    0.15848   1.00
H2       0.28380    1.13747    0.18972   1.00
N1       0.32640    1.09395    0.18132   1.00
C6       0.33977    1.05810    0.17243   1.00
C6       0.35755    1.11757    0.18527   1.00
C6       0.37998    1.05873    0.17085   1.00
C6       0.39129    1.09656    0.17902   1.00
H3       0.32152    1.03281    0.16733   1.00
H3       0.35595    1.14831    0.19241   1.00
H3       0.39896    1.03436    0.16440   1.00
H3       0.42081    1.10758    0.18025   1.00
H2       0.26357    0.86228    0.31597   1.00
H2       0.29562    0.90001    0.33264   1.00
N1       0.23764    0.90523    0.35198   1.00
C6       0.21033    0.88078    0.37124   1.00
C6       0.23214    0.94285    0.36843   1.00
C6       0.18951    0.90277    0.39781   1.00
C6       0.20289    0.94091    0.39608   1.00
H3       0.20657    0.84992    0.36571   1.00
H3       0.24818    0.96876    0.36011   1.00
H3       0.16663    0.89205    0.41669   1.00
H3       0.19220    0.96505    0.41333   1.00
C4       0.02085    0.75006    0.24962   1.00
C4       -0.02085   0.74994    0.25038   1.00
C3       0.04249    0.78448    0.24231   1.00
C3       -0.04252   0.78073    0.26729   1.00
C3       0.04262    0.71575    0.25703   1.00
C3       -0.04259   0.71922    0.23335   1.00
C2       0.10518    0.75016    0.25003   1.00
C2       -0.10518   0.75016    0.25003   1.00
C3a      0.08401    0.78468    0.24247   1.00
C3       -0.08382   0.78076    0.26710   1.00
C3       0.08389    0.71586    0.25722   1.00
C3a      -0.08403   0.71914    0.23309   1.00
H1       0.02706    0.81134    0.23614   1.00
H1       -0.02750   0.80484    0.28112   1.00
C5       0.10590    0.82187    0.23437   1.00
H1       -0.09933   0.80486    0.28039   1.00
H1       0.09944    0.68905    0.26331   1.00
C5       -0.10535   0.68553    0.21452   1.00
H1       -0.02747   0.69549    0.21903   1.00
H1       0.02770    0.68868    0.26353   1.00
H2       -0.09837   0.65848    0.23100   1.00
H2       -0.13747   0.68972    0.21620   1.00
N1       -0.09395   0.68132    0.17360   1.00
C6       -0.05810   0.67243    0.16023   1.00
C6       -0.11757   0.68527    0.14245   1.00
C6       -0.05873   0.67085    0.12002   1.00
C6       -0.09656   0.67902    0.10871   1.00
H3       -0.03281   0.66733    0.17848   1.00
H3       -0.14831   0.69241    0.14405   1.00
H3       -0.03436   0.66440    0.10104   1.00
H3       -0.10758   0.68025    0.07919   1.00
H2       0.13772    0.81597    0.23643   1.00
H2       0.09999    0.83264    0.20438   1.00
N1       0.09477    0.85198    0.26236   1.00
C6       0.11922    0.87124    0.28967   1.00
C6       0.05715    0.86843    0.26786   1.00
C6       0.09723    0.89781    0.31049   1.00
C6       0.05909    0.89608    0.29711   1.00
H3       0.15008    0.86571    0.29343   1.00
H3       0.03124    0.86011    0.25182   1.00
H3       0.10795    0.91669    0.33337   1.00
H3       0.03495    0.91333    0.30780   1.00
C4       0.47915    0.75006    0.25038   1.00
C4       0.52085    0.74994    0.24962   1.00
C3       0.45751    0.78448    0.25769   1.00
C3       0.54252    0.78073    0.23271   1.00
C3       0.45738    0.71575    0.24297   1.00
C3       0.54259    0.71922    0.26665   1.00
C2       0.39482    0.75016    0.24997   1.00
C2       0.60518    0.75016    0.24997   1.00
C3a      0.41599    0.78468    0.25753   1.00
C3       0.58382    0.78076    0.23290   1.00
C3       0.41611    0.71586    0.24278   1.00
C3a      0.58403    0.71914    0.26691   1.00
H1       0.47294    0.81134    0.26386   1.00
H1       0.52750    0.80484    0.21888   1.00
C5       0.39410    0.82187    0.26563   1.00
H1       0.59933    0.80486    0.21961   1.00
H1       0.40056    0.68905    0.23669   1.00
C5       0.60535    0.68553    0.28548   1.00
H1       0.52747    0.69549    0.28097   1.00
H1       0.47230    0.68868    0.23647   1.00
H2       0.59837    0.65848    0.26900   1.00
H2       0.63747    0.68972    0.28380   1.00
N1       0.59395    0.68132    0.32640   1.00
C6       0.55810    0.67243    0.33977   1.00
C6       0.61757    0.68527    0.35755   1.00
C6       0.55873    0.67085    0.37998   1.00
C6       0.59656    0.67902    0.39129   1.00
H3       0.53281    0.66733    0.32152   1.00
H3       0.64831    0.69241    0.35595   1.00
H3       0.53436    0.66440    0.39896   1.00
H3       0.60758    0.68025    0.42081   1.00
H2       0.36228    0.81597    0.26357   1.00
H2       0.40001    0.83264    0.29562   1.00
N1       0.40523    0.85198    0.23764   1.00
C6       0.38078    0.87124    0.21033   1.00
C6       0.44285    0.86843    0.23214   1.00
C6       0.40277    0.89781    0.18951   1.00
C6       0.44091    0.89608    0.20289   1.00
H3       0.34992    0.86571    0.20657   1.00
H3       0.46876    0.86011    0.24818   1.00
H3       0.39205    0.91669    0.16663   1.00
H3       0.46505    0.91333    0.19220   1.00
C4       0.24962    0.52085    0.25006   1.00
C4       0.25038    0.47915    0.24994   1.00
C3       0.24231    0.54249    0.28448   1.00
C3       0.26729    0.45748    0.28073   1.00
C3       0.25703    0.54262    0.21575   1.00
C3       0.23335    0.45741    0.21922   1.00
C2       0.25003    0.60518    0.25016   1.00
C2       0.25003    0.39482    0.25016   1.00
C3a      0.24247    0.58401    0.28468   1.00
C3       0.26710    0.41618    0.28076   1.00
C3       0.25722    0.58389    0.21586   1.00
C3a      0.23309    0.41597    0.21914   1.00
H1       0.23614    0.52706    0.31134   1.00
H1       0.28112    0.47250    0.30484   1.00
C5       0.23437    0.60590    0.32187   1.00
H1       0.28039    0.40067    0.30486   1.00
H1       0.26331    0.59944    0.18905   1.00
C5       0.21452    0.39465    0.18553   1.00
H1       0.21903    0.47253    0.19549   1.00
H1       0.26353    0.52770    0.18868   1.00
H2       0.23100    0.40163    0.15848   1.00
H2       0.21620    0.36253    0.18972   1.00
N1       0.17360    0.40605    0.18132   1.00
C6       0.16023    0.44190    0.17243   1.00
C6       0.14245    0.38243    0.18527   1.00
C6       0.12002    0.44127    0.17085   1.00
C6       0.10871    0.40344    0.17902   1.00
H3       0.17848    0.46719    0.16733   1.00
H3       0.14405    0.35169    0.19241   1.00
H3       0.10104    0.46564    0.16440   1.00
H3       0.07919    0.39242    0.18025   1.00
H2       0.23643    0.63772    0.31597   1.00
H2       0.20438    0.59999    0.33264   1.00
N1       0.26236    0.59477    0.35198   1.00
C6       0.28967    0.61922    0.37124   1.00
C6       0.26786    0.55715    0.36843   1.00
C6       0.31049    0.59723    0.39781   1.00
C6       0.29711    0.55909    0.39608   1.00
H3       0.29343    0.65008    0.36571   1.00
H3       0.25182    0.53124    0.36011   1.00
H3       0.33337    0.60795    0.41669   1.00
H3       0.30780    0.53495    0.41333   1.00
C4       0.25006    0.74962    0.02085   1.00
C4       0.24994    0.75038    -0.02085   1.00
C3       0.28448    0.74231    0.04249   1.00
C3       0.28073    0.76729    -0.04252   1.00
C3       0.21575    0.75703    0.04262   1.00
C3       0.21922    0.73335    -0.04259   1.00
C2       0.25016    0.75003    0.10518   1.00
C2       0.25016    0.75003    -0.10518   1.00
C3a      0.28468    0.74247    0.08401   1.00
C3       0.28076    0.76710    -0.08382   1.00
C3       0.21586    0.75722    0.08389   1.00
C3a      0.21914    0.73309    -0.08403   1.00
H1       0.31134    0.73614    0.02706   1.00
H1       0.30484    0.78112    -0.02750   1.00
C5       0.32187    0.73437    0.10590   1.00
H1       0.30486    0.78039    -0.09933   1.00
H1       0.18905    0.76331    0.09944   1.00
C5       0.18553    0.71452    -0.10535   1.00
H1       0.19549    0.71903    -0.02747   1.00
H1       0.18868    0.76353    0.02770   1.00
H2       0.15848    0.73100    -0.09837   1.00
H2       0.18972    0.71620    -0.13747   1.00
N1       0.18132    0.67360    -0.09395   1.00
C6       0.17243    0.66023    -0.05810   1.00
C6       0.18527    0.64245    -0.11757   1.00
C6       0.17085    0.62002    -0.05873   1.00
C6       0.17902    0.60871    -0.09656   1.00
H3       0.16733    0.67848    -0.03281   1.00
H3       0.19241    0.64405    -0.14831   1.00
H3       0.16440    0.60104    -0.03436   1.00
H3       0.18025    0.57919    -0.10758   1.00
H2       0.31597    0.73643    0.13772   1.00
H2       0.33264    0.70438    0.09999   1.00
N1       0.35198    0.76236    0.09477   1.00
C6       0.37124    0.78967    0.11922   1.00
C6       0.36843    0.76786    0.05715   1.00
C6       0.39781    0.81049    0.09723   1.00
C6       0.39608    0.79711    0.05909   1.00
H3       0.36571    0.79343    0.15008   1.00
H3       0.36011    0.75182    0.03124   1.00
H3       0.41669    0.83337    0.10795   1.00
H3       0.41333    0.80780    0.03495   1.00
C4       0.75006    0.25038    0.47915   1.00
C4       0.74994    0.24962    0.52085   1.00
C3       0.78448    0.25769    0.45751   1.00
C3       0.78073    0.23271    0.54252   1.00
C3       0.71575    0.24297    0.45738   1.00
C3       0.71922    0.26665    0.54259   1.00
C2       0.75016    0.24997    0.39482   1.00
C2       0.75016    0.24997    0.60518   1.00
C3a      0.78468    0.25753    0.41599   1.00
C3       0.78076    0.23290    0.58382   1.00
C3       0.71586    0.24278    0.41611   1.00
C3a      0.71914    0.26691    0.58403   1.00
H1       0.81134    0.26386    0.47294   1.00
H1       0.80484    0.21888    0.52750   1.00
C5       0.82187    0.26563    0.39410   1.00
H1       0.80486    0.21961    0.59933   1.00
H1       0.68905    0.23669    0.40056   1.00
C5       0.68553    0.28548    0.60535   1.00
H1       0.69549    0.28097    0.52747   1.00
H1       0.68868    0.23647    0.47230   1.00
H2       0.65848    0.26900    0.59837   1.00
H2       0.68972    0.28380    0.63747   1.00
N1       0.68132    0.32640    0.59395   1.00
C6       0.67243    0.33977    0.55810   1.00
C6       0.68527    0.35755    0.61757   1.00
C6       0.67085    0.37998    0.55873   1.00
C6       0.67902    0.39129    0.59656   1.00
H3       0.66733    0.32152    0.53281   1.00
H3       0.69241    0.35595    0.64831   1.00
H3       0.66440    0.39896    0.53436   1.00
H3       0.68025    0.42081    0.60758   1.00
H2       0.81597    0.26357    0.36228   1.00
H2       0.83264    0.29562    0.40001   1.00
N1       0.85198    0.23764    0.40523   1.00
C6       0.87124    0.21033    0.38078   1.00
C6       0.86843    0.23214    0.44285   1.00
C6       0.89781    0.18951    0.40277   1.00
C6       0.89608    0.20289    0.44091   1.00
H3       0.86571    0.20657    0.34992   1.00
H3       0.86011    0.24818    0.46876   1.00
H3       0.91669    0.16663    0.39205   1.00
H3       0.91333    0.19220    0.46505   1.00
C4       0.75038    0.47915    0.25006   1.00
C4       0.74962    0.52085    0.24994   1.00
C3       0.75769    0.45751    0.28448   1.00
C3       0.73271    0.54252    0.28073   1.00
C3       0.74297    0.45738    0.21575   1.00
C3       0.76665    0.54259    0.21922   1.00
C2       0.74997    0.39482    0.25016   1.00
C2       0.74997    0.60518    0.25016   1.00
C3a      0.75753    0.41599    0.28468   1.00
C3       0.73290    0.58382    0.28076   1.00
C3       0.74278    0.41611    0.21586   1.00
C3a      0.76691    0.58403    0.21914   1.00
H1       0.76386    0.47294    0.31134   1.00
H1       0.71888    0.52750    0.30484   1.00
C5       0.76563    0.39410    0.32187   1.00
H1       0.71961    0.59933    0.30486   1.00
H1       0.73669    0.40056    0.18905   1.00
C5       0.78548    0.60535    0.18553   1.00
H1       0.78097    0.52747    0.19549   1.00
H1       0.73647    0.47230    0.18868   1.00
H2       0.76900    0.59837    0.15848   1.00
H2       0.78380    0.63747    0.18972   1.00
N1       0.82640    0.59395    0.18132   1.00
C6       0.83977    0.55810    0.17243   1.00
C6       0.85755    0.61757    0.18527   1.00
C6       0.87998    0.55873    0.17085   1.00
C6       0.89129    0.59656    0.17902   1.00
H3       0.82152    0.53281    0.16733   1.00
H3       0.85595    0.64831    0.19241   1.00
H3       0.89896    0.53436    0.16440   1.00
H3       0.92081    0.60758    0.18025   1.00
H2       0.76357    0.36228    0.31597   1.00
H2       0.79562    0.40001    0.33264   1.00
N1       0.73764    0.40523    0.35198   1.00
C6       0.71033    0.38078    0.37124   1.00
C6       0.73214    0.44285    0.36843   1.00
C6       0.68951    0.40277    0.39781   1.00
C6       0.70289    0.44091    0.39608   1.00
H3       0.70657    0.34992    0.36571   1.00
H3       0.74818    0.46876    0.36011   1.00
H3       0.66663    0.39205    0.41669   1.00
H3       0.69220    0.46505    0.41333   1.00
C4       0.52085    0.25006    0.24962   1.00
C4       0.47915    0.24994    0.25038   1.00
C3       0.54249    0.28448    0.24231   1.00
C3       0.45748    0.28073    0.26729   1.00
C3       0.54262    0.21575    0.25703   1.00
C3       0.45741    0.21922    0.23335   1.00
C2       0.60518    0.25016    0.25003   1.00
C2       0.39482    0.25016    0.25003   1.00
C3a      0.58401    0.28468    0.24247   1.00
C3       0.41618    0.28076    0.26710   1.00
C3       0.58389    0.21586    0.25722   1.00
C3a      0.41597    0.21914    0.23309   1.00
H1       0.52706    0.31134    0.23614   1.00
H1       0.47250    0.30484    0.28112   1.00
C5       0.60590    0.32187    0.23437   1.00
H1       0.40067    0.30486    0.28039   1.00
H1       0.59944    0.18905    0.26331   1.00
C5       0.39465    0.18553    0.21452   1.00
H1       0.47253    0.19549    0.21903   1.00
H1       0.52770    0.18868    0.26353   1.00
H2       0.40163    0.15848    0.23100   1.00
H2       0.36253    0.18972    0.21620   1.00
N1       0.40605    0.18132    0.17360   1.00
C6       0.44190    0.17243    0.16023   1.00
C6       0.38243    0.18527    0.14245   1.00
C6       0.44127    0.17085    0.12002   1.00
C6       0.40344    0.17902    0.10871   1.00
H3       0.46719    0.16733    0.17848   1.00
H3       0.35169    0.19241    0.14405   1.00
H3       0.46564    0.16440    0.10104   1.00
H3       0.39242    0.18025    0.07919   1.00
H2       0.63772    0.31597    0.23643   1.00
H2       0.59999    0.33264    0.20438   1.00
N1       0.59477    0.35198    0.26236   1.00
C6       0.61922    0.37124    0.28967   1.00
C6       0.55715    0.36843    0.26786   1.00
C6       0.59723    0.39781    0.31049   1.00
C6       0.55909    0.39608    0.29711   1.00
H3       0.65008    0.36571    0.29343   1.00
H3       0.53124    0.36011    0.25182   1.00
H3       0.60795    0.41669    0.33337   1.00
H3       0.53495    0.41333    0.30780   1.00
C4       0.97915    0.25006    0.25038   1.00
C4       1.02085    0.24994    0.24962   1.00
C3       0.95751    0.28448    0.25769   1.00
C3       1.04252    0.28073    0.23271   1.00
C3       0.95738    0.21575    0.24297   1.00
C3       1.04259    0.21922    0.26665   1.00
C2       0.89482    0.25016    0.24997   1.00
C2       1.10518    0.25016    0.24997   1.00
C3a      0.91599    0.28468    0.25753   1.00
C3       1.08382    0.28076    0.23290   1.00
C3       0.91611    0.21586    0.24278   1.00
C3a      1.08403    0.21914    0.26691   1.00
H1       0.97294    0.31134    0.26386   1.00
H1       1.02750    0.30484    0.21888   1.00
C5       0.89410    0.32187    0.26563   1.00
H1       1.09933    0.30486    0.21961   1.00
H1       0.90056    0.18905    0.23669   1.00
C5       1.10535    0.18553    0.28548   1.00
H1       1.02747    0.19549    0.28097   1.00
H1       0.97230    0.18868    0.23647   1.00
H2       1.09837    0.15848    0.26900   1.00
H2       1.13747    0.18972    0.28380   1.00
N1       1.09395    0.18132    0.32640   1.00
C6       1.05810    0.17243    0.33977   1.00
C6       1.11757    0.18527    0.35755   1.00
C6       1.05873    0.17085    0.37998   1.00
C6       1.09656    0.17902    0.39129   1.00
H3       1.03281    0.16733    0.32152   1.00
H3       1.14831    0.19241    0.35595   1.00
H3       1.03436    0.16440    0.39896   1.00
H3       1.10758    0.18025    0.42081   1.00
H2       0.86228    0.31597    0.26357   1.00
H2       0.90001    0.33264    0.29562   1.00
N1       0.90523    0.35198    0.23764   1.00
C6       0.88078    0.37124    0.21033   1.00
C6       0.94285    0.36843    0.23214   1.00
C6       0.90277    0.39781    0.18951   1.00
C6       0.94091    0.39608    0.20289   1.00
H3       0.84992    0.36571    0.20657   1.00
H3       0.96876    0.36011    0.24818   1.00
H3       0.89205    0.41669    0.16663   1.00
H3       0.96505    0.41333    0.19220   1.00
C4       0.74962    0.02085    0.25006   1.00
C4       0.75038    -0.02085   0.24994   1.00
C3       0.74231    0.04249    0.28448   1.00
C3       0.76729    -0.04252   0.28073   1.00
C3       0.75703    0.04262    0.21575   1.00
C3       0.73335    -0.04259   0.21922   1.00
C2       0.75003    0.10518    0.25016   1.00
C2       0.75003    -0.10518   0.25016   1.00
C3a      0.74247    0.08401    0.28468   1.00
C3       0.76710    -0.08382   0.28076   1.00
C3       0.75722    0.08389    0.21586   1.00
C3a      0.73309    -0.08403   0.21914   1.00
H1       0.73614    0.02706    0.31134   1.00
H1       0.78112    -0.02750   0.30484   1.00
C5       0.73437    0.10590    0.32187   1.00
H1       0.78039    -0.09933   0.30486   1.00
H1       0.76331    0.09944    0.18905   1.00
C5       0.71452    -0.10535   0.18553   1.00
H1       0.71903    -0.02747   0.19549   1.00
H1       0.76353    0.02770    0.18868   1.00
H2       0.73100    -0.09837   0.15848   1.00
H2       0.71620    -0.13747   0.18972   1.00
N1       0.67360    -0.09395   0.18132   1.00
C6       0.66023    -0.05810   0.17243   1.00
C6       0.64245    -0.11757   0.18527   1.00
C6       0.62002    -0.05873   0.17085   1.00
C6       0.60871    -0.09656   0.17902   1.00
H3       0.67848    -0.03281   0.16733   1.00
H3       0.64405    -0.14831   0.19241   1.00
H3       0.60104    -0.03436   0.16440   1.00
H3       0.57919    -0.10758   0.18025   1.00
H2       0.73643    0.13772    0.31597   1.00
H2       0.70438    0.09999    0.33264   1.00
N1       0.76236    0.09477    0.35198   1.00
C6       0.78967    0.11922    0.37124   1.00
C6       0.76786    0.05715    0.36843   1.00
C6       0.81049    0.09723    0.39781   1.00
C6       0.79711    0.05909    0.39608   1.00
H3       0.79343    0.15008    0.36571   1.00
H3       0.75182    0.03124    0.36011   1.00
H3       0.83337    0.10795    0.41669   1.00
H3       0.80780    0.03495    0.41333   1.00
C4       0.75006    0.24962    0.02085   1.00
C4       0.74994    0.25038    -0.02085   1.00
C3       0.78448    0.24231    0.04249   1.00
C3       0.78073    0.26729    -0.04252   1.00
C3       0.71575    0.25703    0.04262   1.00
C3       0.71922    0.23335    -0.04259   1.00
C2       0.75016    0.25003    0.10518   1.00
C2       0.75016    0.25003    -0.10518   1.00
C3a      0.78468    0.24247    0.08401   1.00
C3       0.78076    0.26710    -0.08382   1.00
C3       0.71586    0.25722    0.08389   1.00
C3a      0.71914    0.23309    -0.08403   1.00
H1       0.81134    0.23614    0.02706   1.00
H1       0.80484    0.28112    -0.02750   1.00
C5       0.82187    0.23437    0.10590   1.00
H1       0.80486    0.28039    -0.09933   1.00
H1       0.68905    0.26331    0.09944   1.00
C5       0.68553    0.21452    -0.10535   1.00
H1       0.69549    0.21903    -0.02747   1.00
H1       0.68868    0.26353    0.02770   1.00
H2       0.65848    0.23100    -0.09837   1.00
H2       0.68972    0.21620    -0.13747   1.00
N1       0.68132    0.17360    -0.09395   1.00
C6       0.67243    0.16023    -0.05810   1.00
C6       0.68527    0.14245    -0.11757   1.00
C6       0.67085    0.12002    -0.05873   1.00
C6       0.67902    0.10871    -0.09656   1.00
H3       0.66733    0.17848    -0.03281   1.00
H3       0.69241    0.14405    -0.14831   1.00
H3       0.66440    0.10104    -0.03436   1.00
H3       0.68025    0.07919    -0.10758   1.00
H2       0.81597    0.23643    0.13772   1.00
H2       0.83264    0.20438    0.09999   1.00
N1       0.85198    0.26236    0.09477   1.00
C6       0.87124    0.28967    0.11922   1.00
C6       0.86843    0.26786    0.05715   1.00
C6       0.89781    0.31049    0.09723   1.00
C6       0.89608    0.29711    0.05909   1.00
H3       0.86571    0.29343    0.15008   1.00
H3       0.86011    0.25182    0.03124   1.00
H3       0.91669    0.33337    0.10795   1.00
H3       0.91333    0.30780    0.03495   1.00
C4       0.91506    0.91538    1.14415   1.00
C4       0.91494    0.91462    1.18585   1.00
C3       0.94948    0.92269    1.12251   1.00
C3       0.94573    0.89771    1.20752   1.00
C3       0.88075    0.90797    1.12238   1.00
C3       0.88422    0.93165    1.20759   1.00
C2       0.91516    0.91497    1.05982   1.00
C2       0.91516    0.91497    1.27018   1.00
C3a      0.94968    0.92253    1.08099   1.00
C3       0.94576    0.89790    1.24882   1.00
C3       0.88086    0.90778    1.08111   1.00
C3a      0.88414    0.93191    1.24903   1.00
H1       0.97634    0.92886    1.13794   1.00
H1       0.96984    0.88388    1.19250   1.00
C5       0.98687    0.93063    1.05910   1.00
H1       0.96986    0.88461    1.26433   1.00
H1       0.85405    0.90169    1.06556   1.00
C5       0.85053    0.95048    1.27035   1.00
H1       0.86049    0.94597    1.19247   1.00
H1       0.85368    0.90147    1.13730   1.00
H2       0.82348    0.93400    1.26337   1.00
H2       0.85472    0.94880    1.30247   1.00
N1       0.84632    0.99140    1.25895   1.00
C6       0.83743    1.00477    1.22310   1.00
C6       0.85027    1.02255    1.28257   1.00
C6       0.83585    1.04498    1.22373   1.00
C6       0.84402    1.05629    1.26156   1.00
H3       0.83233    0.98652    1.19781   1.00
H3       0.85741    1.02095    1.31331   1.00
H3       0.82940    1.06396    1.19936   1.00
H3       0.84525    1.08581    1.27258   1.00
H2       0.98097    0.92857    1.02728   1.00
H2       0.99764    0.96062    1.06501   1.00
N1       1.01698    0.90264    1.07023   1.00
C6       1.03624    0.87533    1.04578   1.00
C6       1.03343    0.89714    1.10785   1.00
C6       1.06281    0.85451    1.06777   1.00
C6       1.06108    0.86789    1.10591   1.00
H3       1.03071    0.87157    1.01492   1.00
H3       1.02511    0.91318    1.13376   1.00
H3       1.08169    0.83163    1.05705   1.00
H3       1.07833    0.85720    1.13005   1.00
C4       0.91538    1.14415    0.91506   1.00
C4       0.91462    1.18585    0.91494   1.00
C3       0.92269    1.12251    0.94948   1.00
C3       0.89771    1.20752    0.94573   1.00
C3       0.90797    1.12238    0.88075   1.00
C3       0.93165    1.20759    0.88422   1.00
C2       0.91497    1.05982    0.91516   1.00
C2       0.91497    1.27018    0.91516   1.00
C3a      0.92253    1.08099    0.94968   1.00
C3       0.89790    1.24882    0.94576   1.00
C3       0.90778    1.08111    0.88086   1.00
C3a      0.93191    1.24903    0.88414   1.00
H1       0.92886    1.13794    0.97634   1.00
H1       0.88388    1.19250    0.96984   1.00
C5       0.93063    1.05910    0.98687   1.00
H1       0.88461    1.26433    0.96986   1.00
H1       0.90169    1.06556    0.85405   1.00
C5       0.95048    1.27035    0.85053   1.00
H1       0.94597    1.19247    0.86049   1.00
H1       0.90147    1.13730    0.85368   1.00
H2       0.93400    1.26337    0.82348   1.00
H2       0.94880    1.30247    0.85472   1.00
N1       0.99140    1.25895    0.84632   1.00
C6       1.00477    1.22310    0.83743   1.00
C6       1.02255    1.28257    0.85027   1.00
C6       1.04498    1.22373    0.83585   1.00
C6       1.05629    1.26156    0.84402   1.00
H3       0.98652    1.19781    0.83233   1.00
H3       1.02095    1.31331    0.85741   1.00
H3       1.06396    1.19936    0.82940   1.00
H3       1.08581    1.27258    0.84525   1.00
H2       0.92857    1.02728    0.98097   1.00
H2       0.96062    1.06501    0.99764   1.00
N1       0.90264    1.07023    1.01698   1.00
C6       0.87533    1.04578    1.03624   1.00
C6       0.89714    1.10785    1.03343   1.00
C6       0.85451    1.06777    1.06281   1.00
C6       0.86789    1.10591    1.06108   1.00
H3       0.87157    1.01492    1.03071   1.00
H3       0.91318    1.13376    1.02511   1.00
H3       0.83163    1.05705    1.08169   1.00
H3       0.85720    1.13005    1.07833   1.00
C4       0.68585    0.91506    0.91462   1.00
C4       0.64415    0.91494    0.91538   1.00
C3       0.70749    0.94948    0.90731   1.00
C3       0.62248    0.94573    0.93229   1.00
C3       0.70762    0.88075    0.92203   1.00
C3       0.62241    0.88422    0.89835   1.00
C2       0.77018    0.91516    0.91503   1.00
C2       0.55982    0.91516    0.91503   1.00
C3a      0.74901    0.94968    0.90747   1.00
C3       0.58118    0.94576    0.93210   1.00
C3       0.74889    0.88086    0.92222   1.00
C3a      0.58097    0.88414    0.89809   1.00
H1       0.69206    0.97634    0.90114   1.00
H1       0.63750    0.96984    0.94612   1.00
C5       0.77090    0.98687    0.89937   1.00
H1       0.56567    0.96986    0.94539   1.00
H1       0.76444    0.85405    0.92831   1.00
C5       0.55965    0.85053    0.87952   1.00
H1       0.63753    0.86049    0.88403   1.00
H1       0.69270    0.85368    0.92853   1.00
H2       0.56663    0.82348    0.89600   1.00
H2       0.52753    0.85472    0.88120   1.00
N1       0.57105    0.84632    0.83860   1.00
C6       0.60690    0.83743    0.82523   1.00
C6       0.54743    0.85027    0.80745   1.00
C6       0.60627    0.83585    0.78502   1.00
C6       0.56844    0.84402    0.77371   1.00
H3       0.63219    0.83233    0.84348   1.00
H3       0.51669    0.85741    0.80905   1.00
H3       0.63064    0.82940    0.76604   1.00
H3       0.55742    0.84525    0.74419   1.00
H2       0.80272    0.98097    0.90143   1.00
H2       0.76499    0.99764    0.86938   1.00
N1       0.75977    1.01698    0.92736   1.00
C6       0.78422    1.03624    0.95467   1.00
C6       0.72215    1.03343    0.93286   1.00
C6       0.76223    1.06281    0.97549   1.00
C6       0.72409    1.06108    0.96211   1.00
H3       0.81508    1.03071    0.95843   1.00
H3       0.69624    1.02511    0.91682   1.00
H3       0.77295    1.08169    0.99837   1.00
H3       0.69995    1.07833    0.97280   1.00
C4       1.14415    0.91506    0.91538   1.00
C4       1.18585    0.91494    0.91462   1.00
C3       1.12251    0.94948    0.92269   1.00
C3       1.20752    0.94573    0.89771   1.00
C3       1.12238    0.88075    0.90797   1.00
C3       1.20759    0.88422    0.93165   1.00
C2       1.05982    0.91516    0.91497   1.00
C2       1.27018    0.91516    0.91497   1.00
C3a      1.08099    0.94968    0.92253   1.00
C3       1.24882    0.94576    0.89790   1.00
C3       1.08111    0.88086    0.90778   1.00
C3a      1.24903    0.88414    0.93191   1.00
H1       1.13794    0.97634    0.92886   1.00
H1       1.19250    0.96984    0.88388   1.00
C5       1.05910    0.98687    0.93063   1.00
H1       1.26433    0.96986    0.88461   1.00
H1       1.06556    0.85405    0.90169   1.00
C5       1.27035    0.85053    0.95048   1.00
H1       1.19247    0.86049    0.94597   1.00
H1       1.13730    0.85368    0.90147   1.00
H2       1.26337    0.82348    0.93400   1.00
H2       1.30247    0.85472    0.94880   1.00
N1       1.25895    0.84632    0.99140   1.00
C6       1.22310    0.83743    1.00477   1.00
C6       1.28257    0.85027    1.02255   1.00
C6       1.22373    0.83585    1.04498   1.00
C6       1.26156    0.84402    1.05629   1.00
H3       1.19781    0.83233    0.98652   1.00
H3       1.31331    0.85741    1.02095   1.00
H3       1.19936    0.82940    1.06396   1.00
H3       1.27258    0.84525    1.08581   1.00
H2       1.02728    0.98097    0.92857   1.00
H2       1.06501    0.99764    0.96062   1.00
N1       1.07023    1.01698    0.90264   1.00
C6       1.04578    1.03624    0.87533   1.00
C6       1.10785    1.03343    0.89714   1.00
C6       1.06777    1.06281    0.85451   1.00
C6       1.10591    1.06108    0.86789   1.00
H3       1.01492    1.03071    0.87157   1.00
H3       1.13376    1.02511    0.91318   1.00
H3       1.05705    1.08169    0.83163   1.00
H3       1.13005    1.07833    0.85720   1.00
C4       0.91462    0.68585    0.91506   1.00
C4       0.91538    0.64415    0.91494   1.00
C3       0.90731    0.70749    0.94948   1.00
C3       0.93229    0.62248    0.94573   1.00
C3       0.92203    0.70762    0.88075   1.00
C3       0.89835    0.62241    0.88422   1.00
C2       0.91503    0.77018    0.91516   1.00
C2       0.91503    0.55982    0.91516   1.00
C3a      0.90747    0.74901    0.94968   1.00
C3       0.93210    0.58118    0.94576   1.00
C3       0.92222    0.74889    0.88086   1.00
C3a      0.89809    0.58097    0.88414   1.00
H1       0.90114    0.69206    0.97634   1.00
H1       0.94612    0.63750    0.96984   1.00
C5       0.89937    0.77090    0.98687   1.00
H1       0.94539    0.56567    0.96986   1.00
H1       0.92831    0.76444    0.85405   1.00
C5       0.87952    0.55965    0.85053   1.00
H1       0.88403    0.63753    0.86049   1.00
H1       0.92853    0.69270    0.85368   1.00
H2       0.89600    0.56663    0.82348   1.00
H2       0.88120    0.52753    0.85472   1.00
N1       0.83860    0.57105    0.84632   1.00
C6       0.82523    0.60690    0.83743   1.00
C6       0.80745    0.54743    0.85027   1.00
C6       0.78502    0.60627    0.83585   1.00
C6       0.77371    0.56844    0.84402   1.00
H3       0.84348    0.63219    0.83233   1.00
H3       0.80905    0.51669    0.85741   1.00
H3       0.76604    0.63064    0.82940   1.00
H3       0.74419    0.55742    0.84525   1.00
H2       0.90143    0.80272    0.98097   1.00
H2       0.86938    0.76499    0.99764   1.00
N1       0.92736    0.75977    1.01698   1.00
C6       0.95467    0.78422    1.03624   1.00
C6       0.93286    0.72215    1.03343   1.00
C6       0.97549    0.76223    1.06281   1.00
C6       0.96211    0.72409    1.06108   1.00
H3       0.95843    0.81508    1.03071   1.00
H3       0.91682    0.69624    1.02511   1.00
H3       0.99837    0.77295    1.08169   1.00
H3       0.97280    0.69995    1.07833   1.00
C4       0.91506    0.91462    0.68585   1.00
C4       0.91494    0.91538    0.64415   1.00
C3       0.94948    0.90731    0.70749   1.00
C3       0.94573    0.93229    0.62248   1.00
C3       0.88075    0.92203    0.70762   1.00
C3       0.88422    0.89835    0.62241   1.00
C2       0.91516    0.91503    0.77018   1.00
C2       0.91516    0.91503    0.55982   1.00
C3a      0.94968    0.90747    0.74901   1.00
C3       0.94576    0.93210    0.58118   1.00
C3       0.88086    0.92222    0.74889   1.00
C3a      0.88414    0.89809    0.58097   1.00
H1       0.97634    0.90114    0.69206   1.00
H1       0.96984    0.94612    0.63750   1.00
C5       0.98687    0.89937    0.77090   1.00
H1       0.96986    0.94539    0.56567   1.00
H1       0.85405    0.92831    0.76444   1.00
C5       0.85053    0.87952    0.55965   1.00
H1       0.86049    0.88403    0.63753   1.00
H1       0.85368    0.92853    0.69270   1.00
H2       0.82348    0.89600    0.56663   1.00
H2       0.85472    0.88120    0.52753   1.00
N1       0.84632    0.83860    0.57105   1.00
C6       0.83743    0.82523    0.60690   1.00
C6       0.85027    0.80745    0.54743   1.00
C6       0.83585    0.78502    0.60627   1.00
C6       0.84402    0.77371    0.56844   1.00
H3       0.83233    0.84348    0.63219   1.00
H3       0.85741    0.80905    0.51669   1.00
H3       0.82940    0.76604    0.63064   1.00
H3       0.84525    0.74419    0.55742   1.00
H2       0.98097    0.90143    0.80272   1.00
H2       0.99764    0.86938    0.76499   1.00
N1       1.01698    0.92736    0.75977   1.00
C6       1.03624    0.95467    0.78422   1.00
C6       1.03343    0.93286    0.72215   1.00
C6       1.06281    0.97549    0.76223   1.00
C6       1.06108    0.96211    0.72409   1.00
H3       1.03071    0.95843    0.81508   1.00
H3       1.02511    0.91682    0.69624   1.00
H3       1.08169    0.99837    0.77295   1.00
H3       1.07833    0.97280    0.69995   1.00
C4       0.41506    0.41538    1.14415   1.00
C4       0.41494    0.41462    1.18585   1.00
C3       0.44948    0.42269    1.12251   1.00
C3       0.44573    0.39771    1.20752   1.00
C3       0.38075    0.40797    1.12238   1.00
C3       0.38422    0.43165    1.20759   1.00
C2       0.41516    0.41497    1.05982   1.00
C2       0.41516    0.41497    1.27018   1.00
C3a      0.44968    0.42253    1.08099   1.00
C3       0.44576    0.39790    1.24882   1.00
C3       0.38086    0.40778    1.08111   1.00
C3a      0.38414    0.43191    1.24903   1.00
H1       0.47634    0.42886    1.13794   1.00
H1       0.46984    0.38388    1.19250   1.00
C5       0.48687    0.43063    1.05910   1.00
H1       0.46986    0.38461    1.26433   1.00
H1       0.35405    0.40169    1.06556   1.00
C5       0.35053    0.45048    1.27035   1.00
H1       0.36049    0.44597    1.19247   1.00
H1       0.35368    0.40147    1.13730   1.00
H2       0.32348    0.43400    1.26337   1.00
H2       0.35472    0.44880    1.30247   1.00
N1       0.34632    0.49140    1.25895   1.00
C6       0.33743    0.50477    1.22310   1.00
C6       0.35027    0.52255    1.28257   1.00
C6       0.33585    0.54498    1.22373   1.00
C6       0.34402    0.55629    1.26156   1.00
H3       0.33233    0.48652    1.19781   1.00
H3       0.35741    0.52095    1.31331   1.00
H3       0.32940    0.56396    1.19936   1.00
H3       0.34525    0.58581    1.27258   1.00
H2       0.48097    0.42857    1.02728   1.00
H2       0.49764    0.46062    1.06501   1.00
N1       0.51698    0.40264    1.07023   1.00
C6       0.53624    0.37533    1.04578   1.00
C6       0.53343    0.39714    1.10785   1.00
C6       0.56281    0.35451    1.06777   1.00
C6       0.56108    0.36789    1.10591   1.00
H3       0.53071    0.37157    1.01492   1.00
H3       0.52511    0.41318    1.13376   1.00
H3       0.58169    0.33163    1.05705   1.00
H3       0.57833    0.35720    1.13005   1.00
C4       0.41538    0.64415    0.91506   1.00
C4       0.41462    0.68585    0.91494   1.00
C3       0.42269    0.62251    0.94948   1.00
C3       0.39771    0.70752    0.94573   1.00
C3       0.40797    0.62238    0.88075   1.00
C3       0.43165    0.70759    0.88422   1.00
C2       0.41497    0.55982    0.91516   1.00
C2       0.41497    0.77018    0.91516   1.00
C3a      0.42253    0.58099    0.94968   1.00
C3       0.39790    0.74882    0.94576   1.00
C3       0.40778    0.58111    0.88086   1.00
C3a      0.43191    0.74903    0.88414   1.00
H1       0.42886    0.63794    0.97634   1.00
H1       0.38388    0.69250    0.96984   1.00
C5       0.43063    0.55910    0.98687   1.00
H1       0.38461    0.76433    0.96986   1.00
H1       0.40169    0.56556    0.85405   1.00
C5       0.45048    0.77035    0.85053   1.00
H1       0.44597    0.69247    0.86049   1.00
H1       0.40147    0.63730    0.85368   1.00
H2       0.43400    0.76337    0.82348   1.00
H2       0.44880    0.80247    0.85472   1.00
N1       0.49140    0.75895    0.84632   1.00
C6       0.50477    0.72310    0.83743   1.00
C6       0.52255    0.78257    0.85027   1.00
C6       0.54498    0.72373    0.83585   1.00
C6       0.55629    0.76156    0.84402   1.00
H3       0.48652    0.69781    0.83233   1.00
H3       0.52095    0.81331    0.85741   1.00
H3       0.56396    0.69936    0.82940   1.00
H3       0.58581    0.77258    0.84525   1.00
H2       0.42857    0.52728    0.98097   1.00
H2       0.46062    0.56501    0.99764   1.00
N1       0.40264    0.57023    1.01698   1.00
C6       0.37533    0.54578    1.03624   1.00
C6       0.39714    0.60785    1.03343   1.00
C6       0.35451    0.56777    1.06281   1.00
C6       0.36789    0.60591    1.06108   1.00
H3       0.37157    0.51492    1.03071   1.00
H3       0.41318    0.63376    1.02511   1.00
H3       0.33163    0.55705    1.08169   1.00
H3       0.35720    0.63005    1.07833   1.00
C4       0.18585    0.41506    0.91462   1.00
C4       0.14415    0.41494    0.91538   1.00
C3       0.20749    0.44948    0.90731   1.00
C3       0.12248    0.44573    0.93229   1.00
C3       0.20762    0.38075    0.92203   1.00
C3       0.12241    0.38422    0.89835   1.00
C2       0.27018    0.41516    0.91503   1.00
C2       0.05982    0.41516    0.91503   1.00
C3a      0.24901    0.44968    0.90747   1.00
C3       0.08118    0.44576    0.93210   1.00
C3       0.24889    0.38086    0.92222   1.00
C3a      0.08097    0.38414    0.89809   1.00
H1       0.19206    0.47634    0.90114   1.00
H1       0.13750    0.46984    0.94612   1.00
C5       0.27090    0.48687    0.89937   1.00
H1       0.06567    0.46986    0.94539   1.00
H1       0.26444    0.35405    0.92831   1.00
C5       0.05965    0.35053    0.87952   1.00
H1       0.13753    0.36049    0.88403   1.00
H1       0.19270    0.35368    0.92853   1.00
H2       0.06663    0.32348    0.89600   1.00
H2       0.02753    0.35472    0.88120   1.00
N1       0.07105    0.34632    0.83860   1.00
C6       0.10690    0.33743    0.82523   1.00
C6       0.04743    0.35027    0.80745   1.00
C6       0.10627    0.33585    0.78502   1.00
C6       0.06844    0.34402    0.77371   1.00
H3       0.13219    0.33233    0.84348   1.00
H3       0.01669    0.35741    0.80905   1.00
H3       0.13064    0.32940    0.76604   1.00
H3       0.05742    0.34525    0.74419   1.00
H2       0.30272    0.48097    0.90143   1.00
H2       0.26499    0.49764    0.86938   1.00
N1       0.25977    0.51698    0.92736   1.00
C6       0.28422    0.53624    0.95467   1.00
C6       0.22215    0.53343    0.93286   1.00
C6       0.26223    0.56281    0.97549   1.00
C6       0.22409    0.56108    0.96211   1.00
H3       0.31508    0.53071    0.95843   1.00
H3       0.19624    0.52511    0.91682   1.00
H3       0.27295    0.58169    0.99837   1.00
H3       0.19995    0.57833    0.97280   1.00
C4       0.64415    0.41506    0.91538   1.00
C4       0.68585    0.41494    0.91462   1.00
C3       0.62251    0.44948    0.92269   1.00
C3       0.70752    0.44573    0.89771   1.00
C3       0.62238    0.38075    0.90797   1.00
C3       0.70759    0.38422    0.93165   1.00
C2       0.55982    0.41516    0.91497   1.00
C2       0.77018    0.41516    0.91497   1.00
C3a      0.58099    0.44968    0.92253   1.00
C3       0.74882    0.44576    0.89790   1.00
C3       0.58111    0.38086    0.90778   1.00
C3a      0.74903    0.38414    0.93191   1.00
H1       0.63794    0.47634    0.92886   1.00
H1       0.69250    0.46984    0.88388   1.00
C5       0.55910    0.48687    0.93063   1.00
H1       0.76433    0.46986    0.88461   1.00
H1       0.56556    0.35405    0.90169   1.00
C5       0.77035    0.35053    0.95048   1.00
H1       0.69247    0.36049    0.94597   1.00
H1       0.63730    0.35368    0.90147   1.00
H2       0.76337    0.32348    0.93400   1.00
H2       0.80247    0.35472    0.94880   1.00
N1       0.75895    0.34632    0.99140   1.00
C6       0.72310    0.33743    1.00477   1.00
C6       0.78257    0.35027    1.02255   1.00
C6       0.72373    0.33585    1.04498   1.00
C6       0.76156    0.34402    1.05629   1.00
H3       0.69781    0.33233    0.98652   1.00
H3       0.81331    0.35741    1.02095   1.00
H3       0.69936    0.32940    1.06396   1.00
H3       0.77258    0.34525    1.08581   1.00
H2       0.52728    0.48097    0.92857   1.00
H2       0.56501    0.49764    0.96062   1.00
N1       0.57023    0.51698    0.90264   1.00
C6       0.54578    0.53624    0.87533   1.00
C6       0.60785    0.53343    0.89714   1.00
C6       0.56777    0.56281    0.85451   1.00
C6       0.60591    0.56108    0.86789   1.00
H3       0.51492    0.53071    0.87157   1.00
H3       0.63376    0.52511    0.91318   1.00
H3       0.55705    0.58169    0.83163   1.00
H3       0.63005    0.57833    0.85720   1.00
C4       0.41462    0.18585    0.91506   1.00
C4       0.41538    0.14415    0.91494   1.00
C3       0.40731    0.20749    0.94948   1.00
C3       0.43229    0.12248    0.94573   1.00
C3       0.42203    0.20762    0.88075   1.00
C3       0.39835    0.12241    0.88422   1.00
C2       0.41503    0.27018    0.91516   1.00
C2       0.41503    0.05982    0.91516   1.00
C3a      0.40747    0.24901    0.94968   1.00
C3       0.43210    0.08118    0.94576   1.00
C3       0.42222    0.24889    0.88086   1.00
C3a      0.39809    0.08097    0.88414   1.00
H1       0.40114    0.19206    0.97634   1.00
H1       0.44612    0.13750    0.96984   1.00
C5       0.39937    0.27090    0.98687   1.00
H1       0.44539    0.06567    0.96986   1.00
H1       0.42831    0.26444    0.85405   1.00
C5       0.37952    0.05965    0.85053   1.00
H1       0.38403    0.13753    0.86049   1.00
H1       0.42853    0.19270    0.85368   1.00
H2       0.39600    0.06663    0.82348   1.00
H2       0.38120    0.02753    0.85472   1.00
N1       0.33860    0.07105    0.84632   1.00
C6       0.32523    0.10690    0.83743   1.00
C6       0.30745    0.04743    0.85027   1.00
C6       0.28502    0.10627    0.83585   1.00
C6       0.27371    0.06844    0.84402   1.00
H3       0.34348    0.13219    0.83233   1.00
H3       0.30905    0.01669    0.85741   1.00
H3       0.26604    0.13064    0.82940   1.00
H3       0.24419    0.05742    0.84525   1.00
H2       0.40143    0.30272    0.98097   1.00
H2       0.36938    0.26499    0.99764   1.00
N1       0.42736    0.25977    1.01698   1.00
C6       0.45467    0.28422    1.03624   1.00
C6       0.43286    0.22215    1.03343   1.00
C6       0.47549    0.26223    1.06281   1.00
C6       0.46211    0.22409    1.06108   1.00
H3       0.45843    0.31508    1.03071   1.00
H3       0.41682    0.19624    1.02511   1.00
H3       0.49837    0.27295    1.08169   1.00
H3       0.47280    0.19995    1.07833   1.00
C4       0.41506    0.41462    0.68585   1.00
C4       0.41494    0.41538    0.64415   1.00
C3       0.44948    0.40731    0.70749   1.00
C3       0.44573    0.43229    0.62248   1.00
C3       0.38075    0.42203    0.70762   1.00
C3       0.38422    0.39835    0.62241   1.00
C2       0.41516    0.41503    0.77018   1.00
C2       0.41516    0.41503    0.55982   1.00
C3a      0.44968    0.40747    0.74901   1.00
C3       0.44576    0.43210    0.58118   1.00
C3       0.38086    0.42222    0.74889   1.00
C3a      0.38414    0.39809    0.58097   1.00
H1       0.47634    0.40114    0.69206   1.00
H1       0.46984    0.44612    0.63750   1.00
C5       0.48687    0.39937    0.77090   1.00
H1       0.46986    0.44539    0.56567   1.00
H1       0.35405    0.42831    0.76444   1.00
C5       0.35053    0.37952    0.55965   1.00
H1       0.36049    0.38403    0.63753   1.00
H1       0.35368    0.42853    0.69270   1.00
H2       0.32348    0.39600    0.56663   1.00
H2       0.35472    0.38120    0.52753   1.00
N1       0.34632    0.33860    0.57105   1.00
C6       0.33743    0.32523    0.60690   1.00
C6       0.35027    0.30745    0.54743   1.00
C6       0.33585    0.28502    0.60627   1.00
C6       0.34402    0.27371    0.56844   1.00
H3       0.33233    0.34348    0.63219   1.00
H3       0.35741    0.30905    0.51669   1.00
H3       0.32940    0.26604    0.63064   1.00
H3       0.34525    0.24419    0.55742   1.00
H2       0.48097    0.40143    0.80272   1.00
H2       0.49764    0.36938    0.76499   1.00
N1       0.51698    0.42736    0.75977   1.00
C6       0.53624    0.45467    0.78422   1.00
C6       0.53343    0.43286    0.72215   1.00
C6       0.56281    0.47549    0.76223   1.00
C6       0.56108    0.46211    0.72409   1.00
H3       0.53071    0.45843    0.81508   1.00
H3       0.52511    0.41682    0.69624   1.00
H3       0.58169    0.49837    0.77295   1.00
H3       0.57833    0.47280    0.69995   1.00
C4       0.41506    0.91538    0.64415   1.00
C4       0.41494    0.91462    0.68585   1.00
C3       0.44948    0.92269    0.62251   1.00
C3       0.44573    0.89771    0.70752   1.00
C3       0.38075    0.90797    0.62238   1.00
C3       0.38422    0.93165    0.70759   1.00
C2       0.41516    0.91497    0.55982   1.00
C2       0.41516    0.91497    0.77018   1.00
C3a      0.44968    0.92253    0.58099   1.00
C3       0.44576    0.89790    0.74882   1.00
C3       0.38086    0.90778    0.58111   1.00
C3a      0.38414    0.93191    0.74903   1.00
H1       0.47634    0.92886    0.63794   1.00
H1       0.46984    0.88388    0.69250   1.00
C5       0.48687    0.93063    0.55910   1.00
H1       0.46986    0.88461    0.76433   1.00
H1       0.35405    0.90169    0.56556   1.00
C5       0.35053    0.95048    0.77035   1.00
H1       0.36049    0.94597    0.69247   1.00
H1       0.35368    0.90147    0.63730   1.00
H2       0.32348    0.93400    0.76337   1.00
H2       0.35472    0.94880    0.80247   1.00
N1       0.34632    0.99140    0.75895   1.00
C6       0.33743    1.00477    0.72310   1.00
C6       0.35027    1.02255    0.78257   1.00
C6       0.33585    1.04498    0.72373   1.00
C6       0.34402    1.05629    0.76156   1.00
H3       0.33233    0.98652    0.69781   1.00
H3       0.35741    1.02095    0.81331   1.00
H3       0.32940    1.06396    0.69936   1.00
H3       0.34525    1.08581    0.77258   1.00
H2       0.48097    0.92857    0.52728   1.00
H2       0.49764    0.96062    0.56501   1.00
N1       0.51698    0.90264    0.57023   1.00
C6       0.53624    0.87533    0.54578   1.00
C6       0.53343    0.89714    0.60785   1.00
C6       0.56281    0.85451    0.56777   1.00
C6       0.56108    0.86789    0.60591   1.00
H3       0.53071    0.87157    0.51492   1.00
H3       0.52511    0.91318    0.63376   1.00
H3       0.58169    0.83163    0.55705   1.00
H3       0.57833    0.85720    0.63005   1.00
C4       0.41538    1.14415    0.41506   1.00
C4       0.41462    1.18585    0.41494   1.00
C3       0.42269    1.12251    0.44948   1.00
C3       0.39771    1.20752    0.44573   1.00
C3       0.40797    1.12238    0.38075   1.00
C3       0.43165    1.20759    0.38422   1.00
C2       0.41497    1.05982    0.41516   1.00
C2       0.41497    1.27018    0.41516   1.00
C3a      0.42253    1.08099    0.44968   1.00
C3       0.39790    1.24882    0.44576   1.00
C3       0.40778    1.08111    0.38086   1.00
C3a      0.43191    1.24903    0.38414   1.00
H1       0.42886    1.13794    0.47634   1.00
H1       0.38388    1.19250    0.46984   1.00
C5       0.43063    1.05910    0.48687   1.00
H1       0.38461    1.26433    0.46986   1.00
H1       0.40169    1.06556    0.35405   1.00
C5       0.45048    1.27035    0.35053   1.00
H1       0.44597    1.19247    0.36049   1.00
H1       0.40147    1.13730    0.35368   1.00
H2       0.43400    1.26337    0.32348   1.00
H2       0.44880    1.30247    0.35472   1.00
N1       0.49140    1.25895    0.34632   1.00
C6       0.50477    1.22310    0.33743   1.00
C6       0.52255    1.28257    0.35027   1.00
C6       0.54498    1.22373    0.33585   1.00
C6       0.55629    1.26156    0.34402   1.00
H3       0.48652    1.19781    0.33233   1.00
H3       0.52095    1.31331    0.35741   1.00
H3       0.56396    1.19936    0.32940   1.00
H3       0.58581    1.27258    0.34525   1.00
H2       0.42857    1.02728    0.48097   1.00
H2       0.46062    1.06501    0.49764   1.00
N1       0.40264    1.07023    0.51698   1.00
C6       0.37533    1.04578    0.53624   1.00
C6       0.39714    1.10785    0.53343   1.00
C6       0.35451    1.06777    0.56281   1.00
C6       0.36789    1.10591    0.56108   1.00
H3       0.37157    1.01492    0.53071   1.00
H3       0.41318    1.13376    0.52511   1.00
H3       0.33163    1.05705    0.58169   1.00
H3       0.35720    1.13005    0.57833   1.00
C4       0.18585    0.91506    0.41462   1.00
C4       0.14415    0.91494    0.41538   1.00
C3       0.20749    0.94948    0.40731   1.00
C3       0.12248    0.94573    0.43229   1.00
C3       0.20762    0.88075    0.42203   1.00
C3       0.12241    0.88422    0.39835   1.00
C2       0.27018    0.91516    0.41503   1.00
C2       0.05982    0.91516    0.41503   1.00
C3a      0.24901    0.94968    0.40747   1.00
C3       0.08118    0.94576    0.43210   1.00
C3       0.24889    0.88086    0.42222   1.00
C3a      0.08097    0.88414    0.39809   1.00
H1       0.19206    0.97634    0.40114   1.00
H1       0.13750    0.96984    0.44612   1.00
C5       0.27090    0.98687    0.39937   1.00
H1       0.06567    0.96986    0.44539   1.00
H1       0.26444    0.85405    0.42831   1.00
C5       0.05965    0.85053    0.37952   1.00
H1       0.13753    0.86049    0.38403   1.00
H1       0.19270    0.85368    0.42853   1.00
H2       0.06663    0.82348    0.39600   1.00
H2       0.02753    0.85472    0.38120   1.00
N1       0.07105    0.84632    0.33860   1.00
C6       0.10690    0.83743    0.32523   1.00
C6       0.04743    0.85027    0.30745   1.00
C6       0.10627    0.83585    0.28502   1.00
C6       0.06844    0.84402    0.27371   1.00
H3       0.13219    0.83233    0.34348   1.00
H3       0.01669    0.85741    0.30905   1.00
H3       0.13064    0.82940    0.26604   1.00
H3       0.05742    0.84525    0.24419   1.00
H2       0.30272    0.98097    0.40143   1.00
H2       0.26499    0.99764    0.36938   1.00
N1       0.25977    1.01698    0.42736   1.00
C6       0.28422    1.03624    0.45467   1.00
C6       0.22215    1.03343    0.43286   1.00
C6       0.26223    1.06281    0.47549   1.00
C6       0.22409    1.06108    0.46211   1.00
H3       0.31508    1.03071    0.45843   1.00
H3       0.19624    1.02511    0.41682   1.00
H3       0.27295    1.08169    0.49837   1.00
H3       0.19995    1.07833    0.47280   1.00
C4       0.64415    0.91506    0.41538   1.00
C4       0.68585    0.91494    0.41462   1.00
C3       0.62251    0.94948    0.42269   1.00
C3       0.70752    0.94573    0.39771   1.00
C3       0.62238    0.88075    0.40797   1.00
C3       0.70759    0.88422    0.43165   1.00
C2       0.55982    0.91516    0.41497   1.00
C2       0.77018    0.91516    0.41497   1.00
C3a      0.58099    0.94968    0.42253   1.00
C3       0.74882    0.94576    0.39790   1.00
C3       0.58111    0.88086    0.40778   1.00
C3a      0.74903    0.88414    0.43191   1.00
H1       0.63794    0.97634    0.42886   1.00
H1       0.69250    0.96984    0.38388   1.00
C5       0.55910    0.98687    0.43063   1.00
H1       0.76433    0.96986    0.38461   1.00
H1       0.56556    0.85405    0.40169   1.00
C5       0.77035    0.85053    0.45048   1.00
H1       0.69247    0.86049    0.44597   1.00
H1       0.63730    0.85368    0.40147   1.00
H2       0.76337    0.82348    0.43400   1.00
H2       0.80247    0.85472    0.44880   1.00
N1       0.75895    0.84632    0.49140   1.00
C6       0.72310    0.83743    0.50477   1.00
C6       0.78257    0.85027    0.52255   1.00
C6       0.72373    0.83585    0.54498   1.00
C6       0.76156    0.84402    0.55629   1.00
H3       0.69781    0.83233    0.48652   1.00
H3       0.81331    0.85741    0.52095   1.00
H3       0.69936    0.82940    0.56396   1.00
H3       0.77258    0.84525    0.58581   1.00
H2       0.52728    0.98097    0.42857   1.00
H2       0.56501    0.99764    0.46062   1.00
N1       0.57023    1.01698    0.40264   1.00
C6       0.54578    1.03624    0.37533   1.00
C6       0.60785    1.03343    0.39714   1.00
C6       0.56777    1.06281    0.35451   1.00
C6       0.60591    1.06108    0.36789   1.00
H3       0.51492    1.03071    0.37157   1.00
H3       0.63376    1.02511    0.41318   1.00
H3       0.55705    1.08169    0.33163   1.00
H3       0.63005    1.07833    0.35720   1.00
C4       0.41462    0.68585    0.41506   1.00
C4       0.41538    0.64415    0.41494   1.00
C3       0.40731    0.70749    0.44948   1.00
C3       0.43229    0.62248    0.44573   1.00
C3       0.42203    0.70762    0.38075   1.00
C3       0.39835    0.62241    0.38422   1.00
C2       0.41503    0.77018    0.41516   1.00
C2       0.41503    0.55982    0.41516   1.00
C3a      0.40747    0.74901    0.44968   1.00
C3       0.43210    0.58118    0.44576   1.00
C3       0.42222    0.74889    0.38086   1.00
C3a      0.39809    0.58097    0.38414   1.00
H1       0.40114    0.69206    0.47634   1.00
H1       0.44612    0.63750    0.46984   1.00
C5       0.39937    0.77090    0.48687   1.00
H1       0.44539    0.56567    0.46986   1.00
H1       0.42831    0.76444    0.35405   1.00
C5       0.37952    0.55965    0.35053   1.00
H1       0.38403    0.63753    0.36049   1.00
H1       0.42853    0.69270    0.35368   1.00
H2       0.39600    0.56663    0.32348   1.00
H2       0.38120    0.52753    0.35472   1.00
N1       0.33860    0.57105    0.34632   1.00
C6       0.32523    0.60690    0.33743   1.00
C6       0.30745    0.54743    0.35027   1.00
C6       0.28502    0.60627    0.33585   1.00
C6       0.27371    0.56844    0.34402   1.00
H3       0.34348    0.63219    0.33233   1.00
H3       0.30905    0.51669    0.35741   1.00
H3       0.26604    0.63064    0.32940   1.00
H3       0.24419    0.55742    0.34525   1.00
H2       0.40143    0.80272    0.48097   1.00
H2       0.36938    0.76499    0.49764   1.00
N1       0.42736    0.75977    0.51698   1.00
C6       0.45467    0.78422    0.53624   1.00
C6       0.43286    0.72215    0.53343   1.00
C6       0.47549    0.76223    0.56281   1.00
C6       0.46211    0.72409    0.56108   1.00
H3       0.45843    0.81508    0.53071   1.00
H3       0.41682    0.69624    0.52511   1.00
H3       0.49837    0.77295    0.58169   1.00
H3       0.47280    0.69995    0.57833   1.00
C4       0.41506    0.91462    0.18585   1.00
C4       0.41494    0.91538    0.14415   1.00
C3       0.44948    0.90731    0.20749   1.00
C3       0.44573    0.93229    0.12248   1.00
C3       0.38075    0.92203    0.20762   1.00
C3       0.38422    0.89835    0.12241   1.00
C2       0.41516    0.91503    0.27018   1.00
C2       0.41516    0.91503    0.05982   1.00
C3a      0.44968    0.90747    0.24901   1.00
C3       0.44576    0.93210    0.08118   1.00
C3       0.38086    0.92222    0.24889   1.00
C3a      0.38414    0.89809    0.08097   1.00
H1       0.47634    0.90114    0.19206   1.00
H1       0.46984    0.94612    0.13750   1.00
C5       0.48687    0.89937    0.27090   1.00
H1       0.46986    0.94539    0.06567   1.00
H1       0.35405    0.92831    0.26444   1.00
C5       0.35053    0.87952    0.05965   1.00
H1       0.36049    0.88403    0.13753   1.00
H1       0.35368    0.92853    0.19270   1.00
H2       0.32348    0.89600    0.06663   1.00
H2       0.35472    0.88120    0.02753   1.00
N1       0.34632    0.83860    0.07105   1.00
C6       0.33743    0.82523    0.10690   1.00
C6       0.35027    0.80745    0.04743   1.00
C6       0.33585    0.78502    0.10627   1.00
C6       0.34402    0.77371    0.06844   1.00
H3       0.33233    0.84348    0.13219   1.00
H3       0.35741    0.80905    0.01669   1.00
H3       0.32940    0.76604    0.13064   1.00
H3       0.34525    0.74419    0.05742   1.00
H2       0.48097    0.90143    0.30272   1.00
H2       0.49764    0.86938    0.26499   1.00
N1       0.51698    0.92736    0.25977   1.00
C6       0.53624    0.95467    0.28422   1.00
C6       0.53343    0.93286    0.22215   1.00
C6       0.56281    0.97549    0.26223   1.00
C6       0.56108    0.96211    0.22409   1.00
H3       0.53071    0.95843    0.31508   1.00
H3       0.52511    0.91682    0.19624   1.00
H3       0.58169    0.99837    0.27295   1.00
H3       0.57833    0.97280    0.19995   1.00
C4       0.91506    0.41538    0.64415   1.00
C4       0.91494    0.41462    0.68585   1.00
C3       0.94948    0.42269    0.62251   1.00
C3       0.94573    0.39771    0.70752   1.00
C3       0.88075    0.40797    0.62238   1.00
C3       0.88422    0.43165    0.70759   1.00
C2       0.91516    0.41497    0.55982   1.00
C2       0.91516    0.41497    0.77018   1.00
C3a      0.94968    0.42253    0.58099   1.00
C3       0.94576    0.39790    0.74882   1.00
C3       0.88086    0.40778    0.58111   1.00
C3a      0.88414    0.43191    0.74903   1.00
H1       0.97634    0.42886    0.63794   1.00
H1       0.96984    0.38388    0.69250   1.00
C5       0.98687    0.43063    0.55910   1.00
H1       0.96986    0.38461    0.76433   1.00
H1       0.85405    0.40169    0.56556   1.00
C5       0.85053    0.45048    0.77035   1.00
H1       0.86049    0.44597    0.69247   1.00
H1       0.85368    0.40147    0.63730   1.00
H2       0.82348    0.43400    0.76337   1.00
H2       0.85472    0.44880    0.80247   1.00
N1       0.84632    0.49140    0.75895   1.00
C6       0.83743    0.50477    0.72310   1.00
C6       0.85027    0.52255    0.78257   1.00
C6       0.83585    0.54498    0.72373   1.00
C6       0.84402    0.55629    0.76156   1.00
H3       0.83233    0.48652    0.69781   1.00
H3       0.85741    0.52095    0.81331   1.00
H3       0.82940    0.56396    0.69936   1.00
H3       0.84525    0.58581    0.77258   1.00
H2       0.98097    0.42857    0.52728   1.00
H2       0.99764    0.46062    0.56501   1.00
N1       1.01698    0.40264    0.57023   1.00
C6       1.03624    0.37533    0.54578   1.00
C6       1.03343    0.39714    0.60785   1.00
C6       1.06281    0.35451    0.56777   1.00
C6       1.06108    0.36789    0.60591   1.00
H3       1.03071    0.37157    0.51492   1.00
H3       1.02511    0.41318    0.63376   1.00
H3       1.08169    0.33163    0.55705   1.00
H3       1.07833    0.35720    0.63005   1.00
C4       0.91538    0.64415    0.41506   1.00
C4       0.91462    0.68585    0.41494   1.00
C3       0.92269    0.62251    0.44948   1.00
C3       0.89771    0.70752    0.44573   1.00
C3       0.90797    0.62238    0.38075   1.00
C3       0.93165    0.70759    0.38422   1.00
C2       0.91497    0.55982    0.41516   1.00
C2       0.91497    0.77018    0.41516   1.00
C3a      0.92253    0.58099    0.44968   1.00
C3       0.89790    0.74882    0.44576   1.00
C3       0.90778    0.58111    0.38086   1.00
C3a      0.93191    0.74903    0.38414   1.00
H1       0.92886    0.63794    0.47634   1.00
H1       0.88388    0.69250    0.46984   1.00
C5       0.93063    0.55910    0.48687   1.00
H1       0.88461    0.76433    0.46986   1.00
H1       0.90169    0.56556    0.35405   1.00
C5       0.95048    0.77035    0.35053   1.00
H1       0.94597    0.69247    0.36049   1.00
H1       0.90147    0.63730    0.35368   1.00
H2       0.93400    0.76337    0.32348   1.00
H2       0.94880    0.80247    0.35472   1.00
N1       0.99140    0.75895    0.34632   1.00
C6       1.00477    0.72310    0.33743   1.00
C6       1.02255    0.78257    0.35027   1.00
C6       1.04498    0.72373    0.33585   1.00
C6       1.05629    0.76156    0.34402   1.00
H3       0.98652    0.69781    0.33233   1.00
H3       1.02095    0.81331    0.35741   1.00
H3       1.06396    0.69936    0.32940   1.00
H3       1.08581    0.77258    0.34525   1.00
H2       0.92857    0.52728    0.48097   1.00
H2       0.96062    0.56501    0.49764   1.00
N1       0.90264    0.57023    0.51698   1.00
C6       0.87533    0.54578    0.53624   1.00
C6       0.89714    0.60785    0.53343   1.00
C6       0.85451    0.56777    0.56281   1.00
C6       0.86789    0.60591    0.56108   1.00
H3       0.87157    0.51492    0.53071   1.00
H3       0.91318    0.63376    0.52511   1.00
H3       0.83163    0.55705    0.58169   1.00
H3       0.85720    0.63005    0.57833   1.00
C4       0.68585    0.41506    0.41462   1.00
C4       0.64415    0.41494    0.41538   1.00
C3       0.70749    0.44948    0.40731   1.00
C3       0.62248    0.44573    0.43229   1.00
C3       0.70762    0.38075    0.42203   1.00
C3       0.62241    0.38422    0.39835   1.00
C2       0.77018    0.41516    0.41503   1.00
C2       0.55982    0.41516    0.41503   1.00
C3a      0.74901    0.44968    0.40747   1.00
C3       0.58118    0.44576    0.43210   1.00
C3       0.74889    0.38086    0.42222   1.00
C3a      0.58097    0.38414    0.39809   1.00
H1       0.69206    0.47634    0.40114   1.00
H1       0.63750    0.46984    0.44612   1.00
C5       0.77090    0.48687    0.39937   1.00
H1       0.56567    0.46986    0.44539   1.00
H1       0.76444    0.35405    0.42831   1.00
C5       0.55965    0.35053    0.37952   1.00
H1       0.63753    0.36049    0.38403   1.00
H1       0.69270    0.35368    0.42853   1.00
H2       0.56663    0.32348    0.39600   1.00
H2       0.52753    0.35472    0.38120   1.00
N1       0.57105    0.34632    0.33860   1.00
C6       0.60690    0.33743    0.32523   1.00
C6       0.54743    0.35027    0.30745   1.00
C6       0.60627    0.33585    0.28502   1.00
C6       0.56844    0.34402    0.27371   1.00
H3       0.63219    0.33233    0.34348   1.00
H3       0.51669    0.35741    0.30905   1.00
H3       0.63064    0.32940    0.26604   1.00
H3       0.55742    0.34525    0.24419   1.00
H2       0.80272    0.48097    0.40143   1.00
H2       0.76499    0.49764    0.36938   1.00
N1       0.75977    0.51698    0.42736   1.00
C6       0.78422    0.53624    0.45467   1.00
C6       0.72215    0.53343    0.43286   1.00
C6       0.76223    0.56281    0.47549   1.00
C6       0.72409    0.56108    0.46211   1.00
H3       0.81508    0.53071    0.45843   1.00
H3       0.69624    0.52511    0.41682   1.00
H3       0.77295    0.58169    0.49837   1.00
H3       0.69995    0.57833    0.47280   1.00
C4       1.14415    0.41506    0.41538   1.00
C4       1.18585    0.41494    0.41462   1.00
C3       1.12251    0.44948    0.42269   1.00
C3       1.20752    0.44573    0.39771   1.00
C3       1.12238    0.38075    0.40797   1.00
C3       1.20759    0.38422    0.43165   1.00
C2       1.05982    0.41516    0.41497   1.00
C2       1.27018    0.41516    0.41497   1.00
C3a      1.08099    0.44968    0.42253   1.00
C3       1.24882    0.44576    0.39790   1.00
C3       1.08111    0.38086    0.40778   1.00
C3a      1.24903    0.38414    0.43191   1.00
H1       1.13794    0.47634    0.42886   1.00
H1       1.19250    0.46984    0.38388   1.00
C5       1.05910    0.48687    0.43063   1.00
H1       1.26433    0.46986    0.38461   1.00
H1       1.06556    0.35405    0.40169   1.00
C5       1.27035    0.35053    0.45048   1.00
H1       1.19247    0.36049    0.44597   1.00
H1       1.13730    0.35368    0.40147   1.00
H2       1.26337    0.32348    0.43400   1.00
H2       1.30247    0.35472    0.44880   1.00
N1       1.25895    0.34632    0.49140   1.00
C6       1.22310    0.33743    0.50477   1.00
C6       1.28257    0.35027    0.52255   1.00
C6       1.22373    0.33585    0.54498   1.00
C6       1.26156    0.34402    0.55629   1.00
H3       1.19781    0.33233    0.48652   1.00
H3       1.31331    0.35741    0.52095   1.00
H3       1.19936    0.32940    0.56396   1.00
H3       1.27258    0.34525    0.58581   1.00
H2       1.02728    0.48097    0.42857   1.00
H2       1.06501    0.49764    0.46062   1.00
N1       1.07023    0.51698    0.40264   1.00
C6       1.04578    0.53624    0.37533   1.00
C6       1.10785    0.53343    0.39714   1.00
C6       1.06777    0.56281    0.35451   1.00
C6       1.10591    0.56108    0.36789   1.00
H3       1.01492    0.53071    0.37157   1.00
H3       1.13376    0.52511    0.41318   1.00
H3       1.05705    0.58169    0.33163   1.00
H3       1.13005    0.57833    0.35720   1.00
C4       0.91462    0.18585    0.41506   1.00
C4       0.91538    0.14415    0.41494   1.00
C3       0.90731    0.20749    0.44948   1.00
C3       0.93229    0.12248    0.44573   1.00
C3       0.92203    0.20762    0.38075   1.00
C3       0.89835    0.12241    0.38422   1.00
C2       0.91503    0.27018    0.41516   1.00
C2       0.91503    0.05982    0.41516   1.00
C3a      0.90747    0.24901    0.44968   1.00
C3       0.93210    0.08118    0.44576   1.00
C3       0.92222    0.24889    0.38086   1.00
C3a      0.89809    0.08097    0.38414   1.00
H1       0.90114    0.19206    0.47634   1.00
H1       0.94612    0.13750    0.46984   1.00
C5       0.89937    0.27090    0.48687   1.00
H1       0.94539    0.06567    0.46986   1.00
H1       0.92831    0.26444    0.35405   1.00
C5       0.87952    0.05965    0.35053   1.00
H1       0.88403    0.13753    0.36049   1.00
H1       0.92853    0.19270    0.35368   1.00
H2       0.89600    0.06663    0.32348   1.00
H2       0.88120    0.02753    0.35472   1.00
N1       0.83860    0.07105    0.34632   1.00
C6       0.82523    0.10690    0.33743   1.00
C6       0.80745    0.04743    0.35027   1.00
C6       0.78502    0.10627    0.33585   1.00
C6       0.77371    0.06844    0.34402   1.00
H3       0.84348    0.13219    0.33233   1.00
H3       0.80905    0.01669    0.35741   1.00
H3       0.76604    0.13064    0.32940   1.00
H3       0.74419    0.05742    0.34525   1.00
H2       0.90143    0.30272    0.48097   1.00
H2       0.86938    0.26499    0.49764   1.00
N1       0.92736    0.25977    0.51698   1.00
C6       0.95467    0.28422    0.53624   1.00
C6       0.93286    0.22215    0.53343   1.00
C6       0.97549    0.26223    0.56281   1.00
C6       0.96211    0.22409    0.56108   1.00
H3       0.95843    0.31508    0.53071   1.00
H3       0.91682    0.19624    0.52511   1.00
H3       0.99837    0.27295    0.58169   1.00
H3       0.97280    0.19995    0.57833   1.00
C4       0.91506    0.41462    0.18585   1.00
C4       0.91494    0.41538    0.14415   1.00
C3       0.94948    0.40731    0.20749   1.00
C3       0.94573    0.43229    0.12248   1.00
C3       0.88075    0.42203    0.20762   1.00
C3       0.88422    0.39835    0.12241   1.00
C2       0.91516    0.41503    0.27018   1.00
C2       0.91516    0.41503    0.05982   1.00
C3a      0.94968    0.40747    0.24901   1.00
C3       0.94576    0.43210    0.08118   1.00
C3       0.88086    0.42222    0.24889   1.00
C3a      0.88414    0.39809    0.08097   1.00
H1       0.97634    0.40114    0.19206   1.00
H1       0.96984    0.44612    0.13750   1.00
C5       0.98687    0.39937    0.27090   1.00
H1       0.96986    0.44539    0.06567   1.00
H1       0.85405    0.42831    0.26444   1.00
C5       0.85053    0.37952    0.05965   1.00
H1       0.86049    0.38403    0.13753   1.00
H1       0.85368    0.42853    0.19270   1.00
H2       0.82348    0.39600    0.06663   1.00
H2       0.85472    0.38120    0.02753   1.00
N1       0.84632    0.33860    0.07105   1.00
C6       0.83743    0.32523    0.10690   1.00
C6       0.85027    0.30745    0.04743   1.00
C6       0.83585    0.28502    0.10627   1.00
C6       0.84402    0.27371    0.06844   1.00
H3       0.83233    0.34348    0.13219   1.00
H3       0.85741    0.30905    0.01669   1.00
H3       0.82940    0.26604    0.13064   1.00
H3       0.84525    0.24419    0.05742   1.00
H2       0.98097    0.40143    0.30272   1.00
H2       0.99764    0.36938    0.26499   1.00
N1       1.01698    0.42736    0.25977   1.00
C6       1.03624    0.45467    0.28422   1.00
C6       1.03343    0.43286    0.22215   1.00
C6       1.06281    0.47549    0.26223   1.00
C6       1.06108    0.46211    0.22409   1.00
H3       1.03071    0.45843    0.31508   1.00
H3       1.02511    0.41682    0.19624   1.00
H3       1.08169    0.49837    0.27295   1.00
H3       1.07833    0.47280    0.19995   1.00
