data_IRMOF10_SG202_interpen_Ligand3cp_label_f.

_audit_creation_method             'generated by an auxiliary program of Tobunporous'

_symmetry_space_group_name_H-M     'P 1'
_symmetry_Int_Tables_number        1
_symmetry_cell_setting             triclinic

_cell_length_a                    34.2800
_cell_length_b                    34.2800
_cell_length_c                    34.2800
_cell_angle_alpha                 90.0000
_cell_angle_beta                  90.0000
_cell_angle_gamma                 90.0000

loop_
_atom_site_label
_atom_site_fract_x
_atom_site_fract_y
_atom_site_fract_z
_atom_site_occupancy
O1       0.75000    0.75000    0.75000   1.00
Zn1      0.71720    0.78280    0.78280   1.00
Zn1      0.78280    0.71720    0.78280   1.00
Zn1      0.78280    0.78280    0.71720   1.00
Zn1      0.71720    0.71720    0.71720   1.00
O2       0.72650    0.77350    0.83820   1.00
O2       0.72650    0.83820    0.77350   1.00
O2       0.66180    0.77350    0.77350   1.00
O2       0.77350    0.72650    0.83820   1.00
O2       0.83820    0.72650    0.77350   1.00
O2       0.77350    0.66180    0.77350   1.00
O2       0.77350    0.83820    0.72650   1.00
O2       0.83820    0.77350    0.72650   1.00
O2       0.77350    0.77350    0.66180   1.00
O2       0.66180    0.72650    0.72650   1.00
O2       0.72650    0.66180    0.72650   1.00
O2       0.72650    0.72650    0.66180   1.00
C1       0.75000    0.75000    0.85520   1.00
C1       0.75000    0.85520    0.75000   1.00
C1       0.64480    0.75000    0.75000   1.00
C1       0.85520    0.75000    0.75000   1.00
C1       0.75000    0.64480    0.75000   1.00
C1       0.75000    0.75000    0.64480   1.00
O1       0.25000    0.25000    0.75000   1.00
Zn1      0.21720    0.28280    0.78280   1.00
Zn1      0.28280    0.21720    0.78280   1.00
Zn1      0.28280    0.28280    0.71720   1.00
Zn1      0.21720    0.21720    0.71720   1.00
O2       0.22650    0.27350    0.83820   1.00
O2       0.22650    0.33820    0.77350   1.00
O2       0.16180    0.27350    0.77350   1.00
O2       0.27350    0.22650    0.83820   1.00
O2       0.33820    0.22650    0.77350   1.00
O2       0.27350    0.16180    0.77350   1.00
O2       0.27350    0.33820    0.72650   1.00
O2       0.33820    0.27350    0.72650   1.00
O2       0.27350    0.27350    0.66180   1.00
O2       0.16180    0.22650    0.72650   1.00
O2       0.22650    0.16180    0.72650   1.00
O2       0.22650    0.22650    0.66180   1.00
C1       0.25000    0.25000    0.85520   1.00
C1       0.25000    0.35520    0.75000   1.00
C1       0.14480    0.25000    0.75000   1.00
C1       0.35520    0.25000    0.75000   1.00
C1       0.25000    0.14480    0.75000   1.00
C1       0.25000    0.25000    0.64480   1.00
O1       0.25000    0.75000    0.25000   1.00
Zn1      0.21720    0.78280    0.28280   1.00
Zn1      0.28280    0.71720    0.28280   1.00
Zn1      0.28280    0.78280    0.21720   1.00
Zn1      0.21720    0.71720    0.21720   1.00
O2       0.22650    0.77350    0.33820   1.00
O2       0.22650    0.83820    0.27350   1.00
O2       0.16180    0.77350    0.27350   1.00
O2       0.27350    0.72650    0.33820   1.00
O2       0.33820    0.72650    0.27350   1.00
O2       0.27350    0.66180    0.27350   1.00
O2       0.27350    0.83820    0.22650   1.00
O2       0.33820    0.77350    0.22650   1.00
O2       0.27350    0.77350    0.16180   1.00
O2       0.16180    0.72650    0.22650   1.00
O2       0.22650    0.66180    0.22650   1.00
O2       0.22650    0.72650    0.16180   1.00
C1       0.25000    0.75000    0.35520   1.00
C1       0.25000    0.85520    0.25000   1.00
C1       0.14480    0.75000    0.25000   1.00
C1       0.35520    0.75000    0.25000   1.00
C1       0.25000    0.64480    0.25000   1.00
C1       0.25000    0.75000    0.14480   1.00
O1       0.75000    0.25000    0.25000   1.00
Zn1      0.71720    0.28280    0.28280   1.00
Zn1      0.78280    0.21720    0.28280   1.00
Zn1      0.78280    0.28280    0.21720   1.00
Zn1      0.71720    0.21720    0.21720   1.00
O2       0.72650    0.27350    0.33820   1.00
O2       0.72650    0.33820    0.27350   1.00
O2       0.66180    0.27350    0.27350   1.00
O2       0.77350    0.22650    0.33820   1.00
O2       0.83820    0.22650    0.27350   1.00
O2       0.77350    0.16180    0.27350   1.00
O2       0.77350    0.33820    0.22650   1.00
O2       0.83820    0.27350    0.22650   1.00
O2       0.77350    0.27350    0.16180   1.00
O2       0.66180    0.22650    0.22650   1.00
O2       0.72650    0.16180    0.22650   1.00
O2       0.72650    0.22650    0.16180   1.00
C1       0.75000    0.25000    0.35520   1.00
C1       0.75000    0.35520    0.25000   1.00
C1       0.64480    0.25000    0.25000   1.00
C1       0.85520    0.25000    0.25000   1.00
C1       0.75000    0.14480    0.25000   1.00
C1       0.75000    0.25000    0.14480   1.00
O1       0.25000    0.25000    0.25000   1.00
Zn1      0.28280    0.21720    0.21720   1.00
Zn1      0.21720    0.28280    0.21720   1.00
Zn1      0.21720    0.21720    0.28280   1.00
Zn1      0.28280    0.28280    0.28280   1.00
O2       0.27350    0.22650    0.16180   1.00
O2       0.27350    0.16180    0.22650   1.00
O2       0.33820    0.22650    0.22650   1.00
O2       0.22650    0.27350    0.16180   1.00
O2       0.16180    0.27350    0.22650   1.00
O2       0.22650    0.33820    0.22650   1.00
O2       0.22650    0.16180    0.27350   1.00
O2       0.16180    0.22650    0.27350   1.00
O2       0.22650    0.22650    0.33820   1.00
O2       0.33820    0.27350    0.27350   1.00
O2       0.27350    0.33820    0.27350   1.00
O2       0.27350    0.27350    0.33820   1.00
C1       0.25000    0.25000    0.14480   1.00
C1       0.25000    0.14480    0.25000   1.00
C1       0.35520    0.25000    0.25000   1.00
C1       0.14480    0.25000    0.25000   1.00
C1       0.25000    0.35520    0.25000   1.00
C1       0.25000    0.25000    0.35520   1.00
O1       0.75000    0.75000    0.25000   1.00
Zn1      0.78280    0.71720    0.21720   1.00
Zn1      0.71720    0.78280    0.21720   1.00
Zn1      0.71720    0.71720    0.28280   1.00
Zn1      0.78280    0.78280    0.28280   1.00
O2       0.77350    0.72650    0.16180   1.00
O2       0.77350    0.66180    0.22650   1.00
O2       0.83820    0.72650    0.22650   1.00
O2       0.72650    0.77350    0.16180   1.00
O2       0.66180    0.77350    0.22650   1.00
O2       0.72650    0.83820    0.22650   1.00
O2       0.72650    0.66180    0.27350   1.00
O2       0.66180    0.72650    0.27350   1.00
O2       0.72650    0.72650    0.33820   1.00
O2       0.83820    0.77350    0.27350   1.00
O2       0.77350    0.83820    0.27350   1.00
O2       0.77350    0.77350    0.33820   1.00
C1       0.75000    0.75000    0.14480   1.00
C1       0.75000    0.64480    0.25000   1.00
C1       0.85520    0.75000    0.25000   1.00
C1       0.64480    0.75000    0.25000   1.00
C1       0.75000    0.85520    0.25000   1.00
C1       0.75000    0.75000    0.35520   1.00
O1       0.75000    0.25000    0.75000   1.00
Zn1      0.78280    0.21720    0.71720   1.00
Zn1      0.71720    0.28280    0.71720   1.00
Zn1      0.71720    0.21720    0.78280   1.00
Zn1      0.78280    0.28280    0.78280   1.00
O2       0.77350    0.22650    0.66180   1.00
O2       0.77350    0.16180    0.72650   1.00
O2       0.83820    0.22650    0.72650   1.00
O2       0.72650    0.27350    0.66180   1.00
O2       0.66180    0.27350    0.72650   1.00
O2       0.72650    0.33820    0.72650   1.00
O2       0.72650    0.16180    0.77350   1.00
O2       0.66180    0.22650    0.77350   1.00
O2       0.72650    0.22650    0.83820   1.00
O2       0.83820    0.27350    0.77350   1.00
O2       0.77350    0.33820    0.77350   1.00
O2       0.77350    0.27350    0.83820   1.00
C1       0.75000    0.25000    0.64480   1.00
C1       0.75000    0.14480    0.75000   1.00
C1       0.85520    0.25000    0.75000   1.00
C1       0.64480    0.25000    0.75000   1.00
C1       0.75000    0.35520    0.75000   1.00
C1       0.75000    0.25000    0.85520   1.00
O1       0.25000    0.75000    0.75000   1.00
Zn1      0.28280    0.71720    0.71720   1.00
Zn1      0.21720    0.78280    0.71720   1.00
Zn1      0.21720    0.71720    0.78280   1.00
Zn1      0.28280    0.78280    0.78280   1.00
O2       0.27350    0.72650    0.66180   1.00
O2       0.27350    0.66180    0.72650   1.00
O2       0.33820    0.72650    0.72650   1.00
O2       0.22650    0.77350    0.66180   1.00
O2       0.16180    0.77350    0.72650   1.00
O2       0.22650    0.83820    0.72650   1.00
O2       0.22650    0.66180    0.77350   1.00
O2       0.16180    0.72650    0.77350   1.00
O2       0.22650    0.72650    0.83820   1.00
O2       0.33820    0.77350    0.77350   1.00
O2       0.27350    0.83820    0.77350   1.00
O2       0.27350    0.77350    0.83820   1.00
C1       0.25000    0.75000    0.64480   1.00
C1       0.25000    0.64480    0.75000   1.00
C1       0.35520    0.75000    0.75000   1.00
C1       0.14480    0.75000    0.75000   1.00
C1       0.25000    0.85520    0.75000   1.00
C1       0.25000    0.75000    0.85520   1.00
O1       0.91500    0.91500    0.91500   1.00
Zn1      0.88220    0.94780    0.94780   1.00
Zn1      0.94780    0.88220    0.94780   1.00
Zn1      0.94780    0.94780    0.88220   1.00
Zn1      0.88220    0.88220    0.88220   1.00
O2       0.89150    0.93850    1.00320   1.00
O2       0.89150    1.00320    0.93850   1.00
O2       0.82680    0.93850    0.93850   1.00
O2       0.93850    0.89150    1.00320   1.00
O2       1.00320    0.89150    0.93850   1.00
O2       0.93850    0.82680    0.93850   1.00
O2       0.93850    1.00320    0.89150   1.00
O2       1.00320    0.93850    0.89150   1.00
O2       0.93850    0.93850    0.82680   1.00
O2       0.82680    0.89150    0.89150   1.00
O2       0.89150    0.82680    0.89150   1.00
O2       0.89150    0.89150    0.82680   1.00
C1       0.91500    0.91500    1.02020   1.00
C1       0.91500    1.02020    0.91500   1.00
C1       0.80980    0.91500    0.91500   1.00
C1       1.02020    0.91500    0.91500   1.00
C1       0.91500    0.80980    0.91500   1.00
C1       0.91500    0.91500    0.80980   1.00
O1       0.41500    0.41500    0.91500   1.00
Zn1      0.38220    0.44780    0.94780   1.00
Zn1      0.44780    0.38220    0.94780   1.00
Zn1      0.44780    0.44780    0.88220   1.00
Zn1      0.38220    0.38220    0.88220   1.00
O2       0.39150    0.43850    1.00320   1.00
O2       0.39150    0.50320    0.93850   1.00
O2       0.32680    0.43850    0.93850   1.00
O2       0.43850    0.39150    1.00320   1.00
O2       0.50320    0.39150    0.93850   1.00
O2       0.43850    0.32680    0.93850   1.00
O2       0.43850    0.50320    0.89150   1.00
O2       0.50320    0.43850    0.89150   1.00
O2       0.43850    0.43850    0.82680   1.00
O2       0.32680    0.39150    0.89150   1.00
O2       0.39150    0.32680    0.89150   1.00
O2       0.39150    0.39150    0.82680   1.00
C1       0.41500    0.41500    1.02020   1.00
C1       0.41500    0.52020    0.91500   1.00
C1       0.30980    0.41500    0.91500   1.00
C1       0.52020    0.41500    0.91500   1.00
C1       0.41500    0.30980    0.91500   1.00
C1       0.41500    0.41500    0.80980   1.00
O1       0.41500    0.91500    0.41500   1.00
Zn1      0.38220    0.94780    0.44780   1.00
Zn1      0.44780    0.88220    0.44780   1.00
Zn1      0.44780    0.94780    0.38220   1.00
Zn1      0.38220    0.88220    0.38220   1.00
O2       0.39150    0.93850    0.50320   1.00
O2       0.39150    1.00320    0.43850   1.00
O2       0.32680    0.93850    0.43850   1.00
O2       0.43850    0.89150    0.50320   1.00
O2       0.50320    0.89150    0.43850   1.00
O2       0.43850    0.82680    0.43850   1.00
O2       0.43850    1.00320    0.39150   1.00
O2       0.50320    0.93850    0.39150   1.00
O2       0.43850    0.93850    0.32680   1.00
O2       0.32680    0.89150    0.39150   1.00
O2       0.39150    0.82680    0.39150   1.00
O2       0.39150    0.89150    0.32680   1.00
C1       0.41500    0.91500    0.52020   1.00
C1       0.41500    1.02020    0.41500   1.00
C1       0.30980    0.91500    0.41500   1.00
C1       0.52020    0.91500    0.41500   1.00
C1       0.41500    0.80980    0.41500   1.00
C1       0.41500    0.91500    0.30980   1.00
O1       0.91500    0.41500    0.41500   1.00
Zn1      0.88220    0.44780    0.44780   1.00
Zn1      0.94780    0.38220    0.44780   1.00
Zn1      0.94780    0.44780    0.38220   1.00
Zn1      0.88220    0.38220    0.38220   1.00
O2       0.89150    0.43850    0.50320   1.00
O2       0.89150    0.50320    0.43850   1.00
O2       0.82680    0.43850    0.43850   1.00
O2       0.93850    0.39150    0.50320   1.00
O2       1.00320    0.39150    0.43850   1.00
O2       0.93850    0.32680    0.43850   1.00
O2       0.93850    0.50320    0.39150   1.00
O2       1.00320    0.43850    0.39150   1.00
O2       0.93850    0.43850    0.32680   1.00
O2       0.82680    0.39150    0.39150   1.00
O2       0.89150    0.32680    0.39150   1.00
O2       0.89150    0.39150    0.32680   1.00
C1       0.91500    0.41500    0.52020   1.00
C1       0.91500    0.52020    0.41500   1.00
C1       0.80980    0.41500    0.41500   1.00
C1       1.02020    0.41500    0.41500   1.00
C1       0.91500    0.30980    0.41500   1.00
C1       0.91500    0.41500    0.30980   1.00
O1       0.41500    0.41500    0.41500   1.00
Zn1      0.44780    0.38220    0.38220   1.00
Zn1      0.38220    0.44780    0.38220   1.00
Zn1      0.38220    0.38220    0.44780   1.00
Zn1      0.44780    0.44780    0.44780   1.00
O2       0.43850    0.39150    0.32680   1.00
O2       0.43850    0.32680    0.39150   1.00
O2       0.50320    0.39150    0.39150   1.00
O2       0.39150    0.43850    0.32680   1.00
O2       0.32680    0.43850    0.39150   1.00
O2       0.39150    0.50320    0.39150   1.00
O2       0.39150    0.32680    0.43850   1.00
O2       0.32680    0.39150    0.43850   1.00
O2       0.39150    0.39150    0.50320   1.00
O2       0.50320    0.43850    0.43850   1.00
O2       0.43850    0.50320    0.43850   1.00
O2       0.43850    0.43850    0.50320   1.00
C1       0.41500    0.41500    0.30980   1.00
C1       0.41500    0.30980    0.41500   1.00
C1       0.52020    0.41500    0.41500   1.00
C1       0.30980    0.41500    0.41500   1.00
C1       0.41500    0.52020    0.41500   1.00
C1       0.41500    0.41500    0.52020   1.00
O1       0.91500    0.91500    0.41500   1.00
Zn1      0.94780    0.88220    0.38220   1.00
Zn1      0.88220    0.94780    0.38220   1.00
Zn1      0.88220    0.88220    0.44780   1.00
Zn1      0.94780    0.94780    0.44780   1.00
O2       0.93850    0.89150    0.32680   1.00
O2       0.93850    0.82680    0.39150   1.00
O2       1.00320    0.89150    0.39150   1.00
O2       0.89150    0.93850    0.32680   1.00
O2       0.82680    0.93850    0.39150   1.00
O2       0.89150    1.00320    0.39150   1.00
O2       0.89150    0.82680    0.43850   1.00
O2       0.82680    0.89150    0.43850   1.00
O2       0.89150    0.89150    0.50320   1.00
O2       1.00320    0.93850    0.43850   1.00
O2       0.93850    1.00320    0.43850   1.00
O2       0.93850    0.93850    0.50320   1.00
C1       0.91500    0.91500    0.30980   1.00
C1       0.91500    0.80980    0.41500   1.00
C1       1.02020    0.91500    0.41500   1.00
C1       0.80980    0.91500    0.41500   1.00
C1       0.91500    1.02020    0.41500   1.00
C1       0.91500    0.91500    0.52020   1.00
O1       0.91500    0.41500    0.91500   1.00
Zn1      0.94780    0.38220    0.88220   1.00
Zn1      0.88220    0.44780    0.88220   1.00
Zn1      0.88220    0.38220    0.94780   1.00
Zn1      0.94780    0.44780    0.94780   1.00
O2       0.93850    0.39150    0.82680   1.00
O2       0.93850    0.32680    0.89150   1.00
O2       1.00320    0.39150    0.89150   1.00
O2       0.89150    0.43850    0.82680   1.00
O2       0.82680    0.43850    0.89150   1.00
O2       0.89150    0.50320    0.89150   1.00
O2       0.89150    0.32680    0.93850   1.00
O2       0.82680    0.39150    0.93850   1.00
O2       0.89150    0.39150    1.00320   1.00
O2       1.00320    0.43850    0.93850   1.00
O2       0.93850    0.50320    0.93850   1.00
O2       0.93850    0.43850    1.00320   1.00
C1       0.91500    0.41500    0.80980   1.00
C1       0.91500    0.30980    0.91500   1.00
C1       1.02020    0.41500    0.91500   1.00
C1       0.80980    0.41500    0.91500   1.00
C1       0.91500    0.52020    0.91500   1.00
C1       0.91500    0.41500    1.02020   1.00
O1       0.41500    0.91500    0.91500   1.00
Zn1      0.44780    0.88220    0.88220   1.00
Zn1      0.38220    0.94780    0.88220   1.00
Zn1      0.38220    0.88220    0.94780   1.00
Zn1      0.44780    0.94780    0.94780   1.00
O2       0.43850    0.89150    0.82680   1.00
O2       0.43850    0.82680    0.89150   1.00
O2       0.50320    0.89150    0.89150   1.00
O2       0.39150    0.93850    0.82680   1.00
O2       0.32680    0.93850    0.89150   1.00
O2       0.39150    1.00320    0.89150   1.00
O2       0.39150    0.82680    0.93850   1.00
O2       0.32680    0.89150    0.93850   1.00
O2       0.39150    0.89150    1.00320   1.00
O2       0.50320    0.93850    0.93850   1.00
O2       0.43850    1.00320    0.93850   1.00
O2       0.43850    0.93850    1.00320   1.00
C1       0.41500    0.91500    0.80980   1.00
C1       0.41500    0.80980    0.91500   1.00
C1       0.52020    0.91500    0.91500   1.00
C1       0.30980    0.91500    0.91500   1.00
C1       0.41500    1.02020    0.91500   1.00
C1       0.41500    0.91500    1.02020   1.00
C4       0.75302    0.75040    1.02084   1.00
C4       0.75259    0.74981    0.97912   1.00
C3       0.78442    0.73589    1.04364   1.00
C3       0.78182    0.73150    0.95616   1.00
C3       0.72009    0.76575    1.04123   1.00
C3       0.72140    0.76857    0.95886   1.00
C2       0.75083    0.75087    1.10512   1.00
C2       0.74917    0.74913    0.89488   1.00
C3       0.78329    0.73590    1.08462   1.00
C3       0.78038    0.73147    0.91519   1.00
C3       0.71983    0.76617    1.08258   1.00
C3       0.71961    0.76676    0.91762   1.00
H1       0.80910    0.72501    1.03115   1.00
H1       0.80490    0.71743    0.96852   1.00
C5       0.68773    0.78074    1.02020   1.00
C5       0.69197    0.78872    0.97980   1.00
H1       0.80675    0.72476    1.09955   1.00
H1       0.80251    0.71806    0.90010   1.00
H1       0.69649    0.77826    1.09680   1.00
H1       0.69582    0.77816    0.90368   1.00
O3       0.65360    0.78942    1.03961   1.00
O3       0.66615    0.81335    0.96099   1.00
Si1      0.61900    0.75678    1.04247   1.00
Si1      0.67918    0.85841    0.95279   1.00
C6       0.58877    0.78241    1.07538   1.00
C6       0.59724    0.75331    0.99598   1.00
C6       0.63480    0.71204    1.06253   1.00
C6       0.72658    0.87309    0.96693   1.00
C6       0.67440    0.86283    0.90198   1.00
C6       0.64393    0.88868    0.97477   1.00
C6       0.60968    0.80028    1.11194   1.00
H2       0.57950    0.80741    1.05791   1.00
C6       0.55017    0.76369    1.09147   1.00
H2       0.60361    0.78193    0.98358   1.00
C6       0.61408    0.72294    0.96634   1.00
C6       0.55188    0.74863    0.99336   1.00
H2       0.65098    0.72158    1.08831   1.00
C6       0.60259    0.68335    1.07772   1.00
C6       0.66323    0.68524    1.03849   1.00
C6       0.73844    0.86808    1.01071   1.00
C6       0.76264    0.85967    0.94225   1.00
H2       0.72559    0.90456    0.96212   1.00
H2       0.69811    0.84494    0.89051   1.00
C6       0.63623    0.84550    0.88378   1.00
C6       0.67972    0.90441    0.88393   1.00
H2       0.61999    0.88919    0.95375   1.00
C6       0.62537    0.87332    1.01336   1.00
C6       0.65487    0.93239    0.98244   1.00
H2       0.63379    0.81933    1.10346   1.00
H2       0.62135    0.77744    1.13090   1.00
H2       0.58960    0.81810    1.12917   1.00
H2       0.52815    0.78632    1.09608   1.00
H2       0.53771    0.74217    1.07178   1.00
H2       0.55449    0.74942    1.11964   1.00
H2       0.60402    0.72929    0.93672   1.00
H2       0.64580    0.72357    0.96532   1.00
H2       0.60466    0.69337    0.97352   1.00
H2       0.53685    0.77220    1.00862   1.00
H2       0.54182    0.74984    0.96308   1.00
H2       0.54247    0.72070    1.00550   1.00
H2       0.58089    0.67742    1.05514   1.00
H2       0.61485    0.65539    1.08708   1.00
H2       0.58794    0.69496    1.10332   1.00
H2       0.64752    0.66553    1.01902   1.00
H2       0.68375    0.70138    1.02068   1.00
H2       0.68049    0.66709    1.05828   1.00
H2       0.74848    0.83856    1.01688   1.00
H2       0.76242    0.88780    1.01809   1.00
H2       0.71451    0.87477    1.03048   1.00
H2       0.78891    0.87543    0.95125   1.00
H2       0.76880    0.82873    0.94574   1.00
H2       0.75886    0.86566    0.91122   1.00
H2       0.63890    0.84360    0.85202   1.00
H2       0.63068    0.81593    0.89435   1.00
H2       0.61070    0.86335    0.89035   1.00
H2       0.70644    0.91838    0.89416   1.00
H2       0.68179    0.90255    0.85212   1.00
H2       0.65504    0.92335    0.89085   1.00
H2       0.64689    0.87006    1.03656   1.00
H2       0.60226    0.89263    1.02381   1.00
H2       0.61216    0.84497    1.00834   1.00
H2       0.62901    0.94931    0.99044   1.00
H2       0.67593    0.93513    1.00622   1.00
H2       0.66720    0.94618    0.95657   1.00
C4       0.75040    1.02084    0.75302   1.00
C4       0.74981    0.97912    0.75259   1.00
C3       0.73589    1.04364    0.78442   1.00
C3       0.73150    0.95616    0.78182   1.00
C3       0.76575    1.04123    0.72009   1.00
C3       0.76857    0.95886    0.72140   1.00
C2       0.75087    1.10512    0.75083   1.00
C2       0.74913    0.89488    0.74917   1.00
C3       0.73590    1.08462    0.78329   1.00
C3       0.73147    0.91519    0.78038   1.00
C3       0.76617    1.08258    0.71983   1.00
C3       0.76676    0.91762    0.71961   1.00
H1       0.72501    1.03115    0.80910   1.00
H1       0.71743    0.96852    0.80490   1.00
C5       0.78074    1.02020    0.68773   1.00
C5       0.78872    0.97980    0.69197   1.00
H1       0.72476    1.09955    0.80675   1.00
H1       0.71806    0.90010    0.80251   1.00
H1       0.77826    1.09680    0.69649   1.00
H1       0.77816    0.90368    0.69582   1.00
O3       0.78942    1.03961    0.65360   1.00
O3       0.81335    0.96099    0.66615   1.00
Si1      0.75678    1.04247    0.61900   1.00
Si1      0.85841    0.95279    0.67918   1.00
C6       0.78241    1.07538    0.58877   1.00
C6       0.75331    0.99598    0.59724   1.00
C6       0.71204    1.06253    0.63480   1.00
C6       0.87309    0.96693    0.72658   1.00
C6       0.86283    0.90198    0.67440   1.00
C6       0.88868    0.97477    0.64393   1.00
C6       0.80028    1.11194    0.60968   1.00
H2       0.80741    1.05791    0.57950   1.00
C6       0.76369    1.09147    0.55017   1.00
H2       0.78193    0.98358    0.60361   1.00
C6       0.72294    0.96634    0.61408   1.00
C6       0.74863    0.99336    0.55188   1.00
H2       0.72158    1.08831    0.65098   1.00
C6       0.68335    1.07772    0.60259   1.00
C6       0.68524    1.03849    0.66323   1.00
C6       0.86808    1.01071    0.73844   1.00
C6       0.85967    0.94225    0.76264   1.00
H2       0.90456    0.96212    0.72559   1.00
H2       0.84494    0.89051    0.69811   1.00
C6       0.84550    0.88378    0.63623   1.00
C6       0.90441    0.88393    0.67972   1.00
H2       0.88919    0.95375    0.61999   1.00
C6       0.87332    1.01336    0.62537   1.00
C6       0.93239    0.98244    0.65487   1.00
H2       0.81933    1.10346    0.63379   1.00
H2       0.77744    1.13090    0.62135   1.00
H2       0.81810    1.12917    0.58960   1.00
H2       0.78632    1.09608    0.52815   1.00
H2       0.74217    1.07178    0.53771   1.00
H2       0.74942    1.11964    0.55449   1.00
H2       0.72929    0.93672    0.60402   1.00
H2       0.72357    0.96532    0.64580   1.00
H2       0.69337    0.97352    0.60466   1.00
H2       0.77220    1.00862    0.53685   1.00
H2       0.74984    0.96308    0.54182   1.00
H2       0.72070    1.00550    0.54247   1.00
H2       0.67742    1.05514    0.58089   1.00
H2       0.65539    1.08708    0.61485   1.00
H2       0.69496    1.10332    0.58794   1.00
H2       0.66553    1.01902    0.64752   1.00
H2       0.70138    1.02068    0.68375   1.00
H2       0.66709    1.05828    0.68049   1.00
H2       0.83856    1.01688    0.74848   1.00
H2       0.88780    1.01809    0.76242   1.00
H2       0.87477    1.03048    0.71451   1.00
H2       0.87543    0.95125    0.78891   1.00
H2       0.82873    0.94574    0.76880   1.00
H2       0.86566    0.91122    0.75886   1.00
H2       0.84360    0.85202    0.63890   1.00
H2       0.81593    0.89435    0.63068   1.00
H2       0.86335    0.89035    0.61070   1.00
H2       0.91838    0.89416    0.70644   1.00
H2       0.90255    0.85212    0.68179   1.00
H2       0.92335    0.89085    0.65504   1.00
H2       0.87006    1.03656    0.64689   1.00
H2       0.89263    1.02381    0.60226   1.00
H2       0.84497    1.00834    0.61216   1.00
H2       0.94931    0.99044    0.62901   1.00
H2       0.93513    1.00622    0.67593   1.00
H2       0.94618    0.95657    0.66720   1.00
C4       0.47916    0.75302    0.74960   1.00
C4       0.52088    0.75259    0.75019   1.00
C3       0.45636    0.78442    0.76411   1.00
C3       0.54384    0.78182    0.76850   1.00
C3       0.45877    0.72009    0.73425   1.00
C3       0.54114    0.72140    0.73143   1.00
C2       0.39488    0.75083    0.74913   1.00
C2       0.60512    0.74917    0.75087   1.00
C3       0.41538    0.78329    0.76410   1.00
C3       0.58481    0.78038    0.76853   1.00
C3       0.41742    0.71983    0.73383   1.00
C3       0.58238    0.71961    0.73324   1.00
H1       0.46885    0.80910    0.77499   1.00
H1       0.53148    0.80490    0.78257   1.00
C5       0.47980    0.68773    0.71926   1.00
C5       0.52020    0.69197    0.71128   1.00
H1       0.40045    0.80675    0.77524   1.00
H1       0.59990    0.80251    0.78194   1.00
H1       0.40320    0.69649    0.72174   1.00
H1       0.59632    0.69582    0.72184   1.00
O3       0.46039    0.65360    0.71058   1.00
O3       0.53901    0.66615    0.68665   1.00
Si1      0.45753    0.61900    0.74322   1.00
Si1      0.54721    0.67918    0.64159   1.00
C6       0.42462    0.58877    0.71759   1.00
C6       0.50402    0.59724    0.74669   1.00
C6       0.43747    0.63480    0.78796   1.00
C6       0.53307    0.72658    0.62691   1.00
C6       0.59802    0.67440    0.63717   1.00
C6       0.52523    0.64393    0.61132   1.00
C6       0.38806    0.60968    0.69972   1.00
H2       0.44209    0.57950    0.69259   1.00
C6       0.40853    0.55017    0.73631   1.00
H2       0.51642    0.60361    0.71807   1.00
C6       0.53366    0.61408    0.77706   1.00
C6       0.50664    0.55188    0.75137   1.00
H2       0.41169    0.65098    0.77842   1.00
C6       0.42228    0.60259    0.81665   1.00
C6       0.46151    0.66323    0.81476   1.00
C6       0.48929    0.73844    0.63192   1.00
C6       0.55775    0.76264    0.64033   1.00
H2       0.53788    0.72559    0.59544   1.00
H2       0.60949    0.69811    0.65506   1.00
C6       0.61622    0.63623    0.65450   1.00
C6       0.61607    0.67972    0.59559   1.00
H2       0.54625    0.61999    0.61081   1.00
C6       0.48664    0.62537    0.62668   1.00
C6       0.51756    0.65487    0.56761   1.00
H2       0.39654    0.63379    0.68067   1.00
H2       0.36910    0.62135    0.72256   1.00
H2       0.37083    0.58960    0.68190   1.00
H2       0.40392    0.52815    0.71368   1.00
H2       0.42822    0.53771    0.75783   1.00
H2       0.38036    0.55449    0.75058   1.00
H2       0.56328    0.60402    0.77071   1.00
H2       0.53468    0.64580    0.77643   1.00
H2       0.52648    0.60466    0.80663   1.00
H2       0.49138    0.53685    0.72780   1.00
H2       0.53692    0.54182    0.75016   1.00
H2       0.49450    0.54247    0.77930   1.00
H2       0.44486    0.58089    0.82258   1.00
H2       0.41292    0.61485    0.84461   1.00
H2       0.39668    0.58794    0.80504   1.00
H2       0.48098    0.64752    0.83447   1.00
H2       0.47932    0.68375    0.79862   1.00
H2       0.44172    0.68049    0.83291   1.00
H2       0.48312    0.74848    0.66144   1.00
H2       0.48191    0.76242    0.61220   1.00
H2       0.46952    0.71451    0.62523   1.00
H2       0.54875    0.78891    0.62457   1.00
H2       0.55426    0.76880    0.67127   1.00
H2       0.58878    0.75886    0.63434   1.00
H2       0.64798    0.63890    0.65640   1.00
H2       0.60565    0.63068    0.68407   1.00
H2       0.60965    0.61070    0.63665   1.00
H2       0.60584    0.70644    0.58162   1.00
H2       0.64788    0.68179    0.59745   1.00
H2       0.60915    0.65504    0.57665   1.00
H2       0.46344    0.64689    0.62994   1.00
H2       0.47619    0.60226    0.60737   1.00
H2       0.49166    0.61216    0.65503   1.00
H2       0.50956    0.62901    0.55069   1.00
H2       0.49378    0.67593    0.56487   1.00
H2       0.54343    0.66720    0.55382   1.00
C4       1.02084    0.75302    0.75040   1.00
C4       0.97912    0.75259    0.74981   1.00
C3       1.04364    0.78442    0.73589   1.00
C3       0.95616    0.78182    0.73150   1.00
C3       1.04123    0.72009    0.76575   1.00
C3       0.95886    0.72140    0.76857   1.00
C2       1.10512    0.75083    0.75087   1.00
C2       0.89488    0.74917    0.74913   1.00
C3       1.08462    0.78329    0.73590   1.00
C3       0.91519    0.78038    0.73147   1.00
C3       1.08258    0.71983    0.76617   1.00
C3       0.91762    0.71961    0.76676   1.00
H1       1.03115    0.80910    0.72501   1.00
H1       0.96852    0.80490    0.71743   1.00
C5       1.02020    0.68773    0.78074   1.00
C5       0.97980    0.69197    0.78872   1.00
H1       1.09955    0.80675    0.72476   1.00
H1       0.90010    0.80251    0.71806   1.00
H1       1.09680    0.69649    0.77826   1.00
H1       0.90368    0.69582    0.77816   1.00
O3       1.03961    0.65360    0.78942   1.00
O3       0.96099    0.66615    0.81335   1.00
Si1      1.04247    0.61900    0.75678   1.00
Si1      0.95279    0.67918    0.85841   1.00
C6       1.07538    0.58877    0.78241   1.00
C6       0.99598    0.59724    0.75331   1.00
C6       1.06253    0.63480    0.71204   1.00
C6       0.96693    0.72658    0.87309   1.00
C6       0.90198    0.67440    0.86283   1.00
C6       0.97477    0.64393    0.88868   1.00
C6       1.11194    0.60968    0.80028   1.00
H2       1.05791    0.57950    0.80741   1.00
C6       1.09147    0.55017    0.76369   1.00
H2       0.98358    0.60361    0.78193   1.00
C6       0.96634    0.61408    0.72294   1.00
C6       0.99336    0.55188    0.74863   1.00
H2       1.08831    0.65098    0.72158   1.00
C6       1.07772    0.60259    0.68335   1.00
C6       1.03849    0.66323    0.68524   1.00
C6       1.01071    0.73844    0.86808   1.00
C6       0.94225    0.76264    0.85967   1.00
H2       0.96212    0.72559    0.90456   1.00
H2       0.89051    0.69811    0.84494   1.00
C6       0.88378    0.63623    0.84550   1.00
C6       0.88393    0.67972    0.90441   1.00
H2       0.95375    0.61999    0.88919   1.00
C6       1.01336    0.62537    0.87332   1.00
C6       0.98244    0.65487    0.93239   1.00
H2       1.10346    0.63379    0.81933   1.00
H2       1.13090    0.62135    0.77744   1.00
H2       1.12917    0.58960    0.81810   1.00
H2       1.09608    0.52815    0.78632   1.00
H2       1.07178    0.53771    0.74217   1.00
H2       1.11964    0.55449    0.74942   1.00
H2       0.93672    0.60402    0.72929   1.00
H2       0.96532    0.64580    0.72357   1.00
H2       0.97352    0.60466    0.69337   1.00
H2       1.00862    0.53685    0.77220   1.00
H2       0.96308    0.54182    0.74984   1.00
H2       1.00550    0.54247    0.72070   1.00
H2       1.05514    0.58089    0.67742   1.00
H2       1.08708    0.61485    0.65539   1.00
H2       1.10332    0.58794    0.69496   1.00
H2       1.01902    0.64752    0.66553   1.00
H2       1.02068    0.68375    0.70138   1.00
H2       1.05828    0.68049    0.66709   1.00
H2       1.01688    0.74848    0.83856   1.00
H2       1.01809    0.76242    0.88780   1.00
H2       1.03048    0.71451    0.87477   1.00
H2       0.95125    0.78891    0.87543   1.00
H2       0.94574    0.76880    0.82873   1.00
H2       0.91122    0.75886    0.86566   1.00
H2       0.85202    0.63890    0.84360   1.00
H2       0.89435    0.63068    0.81593   1.00
H2       0.89035    0.61070    0.86335   1.00
H2       0.89416    0.70644    0.91838   1.00
H2       0.85212    0.68179    0.90255   1.00
H2       0.89085    0.65504    0.92335   1.00
H2       1.03656    0.64689    0.87006   1.00
H2       1.02381    0.60226    0.89263   1.00
H2       1.00834    0.61216    0.84497   1.00
H2       0.99044    0.62901    0.94931   1.00
H2       1.00622    0.67593    0.93513   1.00
H2       0.95657    0.66720    0.94618   1.00
C4       0.74960    0.47916    0.75302   1.00
C4       0.75019    0.52088    0.75259   1.00
C3       0.76411    0.45636    0.78442   1.00
C3       0.76850    0.54384    0.78182   1.00
C3       0.73425    0.45877    0.72009   1.00
C3       0.73143    0.54114    0.72140   1.00
C2       0.74913    0.39488    0.75083   1.00
C2       0.75087    0.60512    0.74917   1.00
C3       0.76410    0.41538    0.78329   1.00
C3       0.76853    0.58481    0.78038   1.00
C3       0.73383    0.41742    0.71983   1.00
C3       0.73324    0.58238    0.71961   1.00
H1       0.77499    0.46885    0.80910   1.00
H1       0.78257    0.53148    0.80490   1.00
C5       0.71926    0.47980    0.68773   1.00
C5       0.71128    0.52020    0.69197   1.00
H1       0.77524    0.40045    0.80675   1.00
H1       0.78194    0.59990    0.80251   1.00
H1       0.72174    0.40320    0.69649   1.00
H1       0.72184    0.59632    0.69582   1.00
O3       0.71058    0.46039    0.65360   1.00
O3       0.68665    0.53901    0.66615   1.00
Si1      0.74322    0.45753    0.61900   1.00
Si1      0.64159    0.54721    0.67918   1.00
C6       0.71759    0.42462    0.58877   1.00
C6       0.74669    0.50402    0.59724   1.00
C6       0.78796    0.43747    0.63480   1.00
C6       0.62691    0.53307    0.72658   1.00
C6       0.63717    0.59802    0.67440   1.00
C6       0.61132    0.52523    0.64393   1.00
C6       0.69972    0.38806    0.60968   1.00
H2       0.69259    0.44209    0.57950   1.00
C6       0.73631    0.40853    0.55017   1.00
H2       0.71807    0.51642    0.60361   1.00
C6       0.77706    0.53366    0.61408   1.00
C6       0.75137    0.50664    0.55188   1.00
H2       0.77842    0.41169    0.65098   1.00
C6       0.81665    0.42228    0.60259   1.00
C6       0.81476    0.46151    0.66323   1.00
C6       0.63192    0.48929    0.73844   1.00
C6       0.64033    0.55775    0.76264   1.00
H2       0.59544    0.53788    0.72559   1.00
H2       0.65506    0.60949    0.69811   1.00
C6       0.65450    0.61622    0.63623   1.00
C6       0.59559    0.61607    0.67972   1.00
H2       0.61081    0.54625    0.61999   1.00
C6       0.62668    0.48664    0.62537   1.00
C6       0.56761    0.51756    0.65487   1.00
H2       0.68067    0.39654    0.63379   1.00
H2       0.72256    0.36910    0.62135   1.00
H2       0.68190    0.37083    0.58960   1.00
H2       0.71368    0.40392    0.52815   1.00
H2       0.75783    0.42822    0.53771   1.00
H2       0.75058    0.38036    0.55449   1.00
H2       0.77071    0.56328    0.60402   1.00
H2       0.77643    0.53468    0.64580   1.00
H2       0.80663    0.52648    0.60466   1.00
H2       0.72780    0.49138    0.53685   1.00
H2       0.75016    0.53692    0.54182   1.00
H2       0.77930    0.49450    0.54247   1.00
H2       0.82258    0.44486    0.58089   1.00
H2       0.84461    0.41292    0.61485   1.00
H2       0.80504    0.39668    0.58794   1.00
H2       0.83447    0.48098    0.64752   1.00
H2       0.79862    0.47932    0.68375   1.00
H2       0.83291    0.44172    0.68049   1.00
H2       0.66144    0.48312    0.74848   1.00
H2       0.61220    0.48191    0.76242   1.00
H2       0.62523    0.46952    0.71451   1.00
H2       0.62457    0.54875    0.78891   1.00
H2       0.67127    0.55426    0.76880   1.00
H2       0.63434    0.58878    0.75886   1.00
H2       0.65640    0.64798    0.63890   1.00
H2       0.68407    0.60565    0.63068   1.00
H2       0.63665    0.60965    0.61070   1.00
H2       0.58162    0.60584    0.70644   1.00
H2       0.59745    0.64788    0.68179   1.00
H2       0.57665    0.60915    0.65504   1.00
H2       0.62994    0.46344    0.64689   1.00
H2       0.60737    0.47619    0.60226   1.00
H2       0.65503    0.49166    0.61216   1.00
H2       0.55069    0.50956    0.62901   1.00
H2       0.56487    0.49378    0.67593   1.00
H2       0.55382    0.54343    0.66720   1.00
C4       0.75302    0.74960    0.47916   1.00
C4       0.75259    0.75019    0.52088   1.00
C3       0.78442    0.76411    0.45636   1.00
C3       0.78182    0.76850    0.54384   1.00
C3       0.72009    0.73425    0.45877   1.00
C3       0.72140    0.73143    0.54114   1.00
C2       0.75083    0.74913    0.39488   1.00
C2       0.74917    0.75087    0.60512   1.00
C3       0.78329    0.76410    0.41538   1.00
C3       0.78038    0.76853    0.58481   1.00
C3       0.71983    0.73383    0.41742   1.00
C3       0.71961    0.73324    0.58238   1.00
H1       0.80910    0.77499    0.46885   1.00
H1       0.80490    0.78257    0.53148   1.00
C5       0.68773    0.71926    0.47980   1.00
C5       0.69197    0.71128    0.52020   1.00
H1       0.80675    0.77524    0.40045   1.00
H1       0.80251    0.78194    0.59990   1.00
H1       0.69649    0.72174    0.40320   1.00
H1       0.69582    0.72184    0.59632   1.00
O3       0.65360    0.71058    0.46039   1.00
O3       0.66615    0.68665    0.53901   1.00
Si1      0.61900    0.74322    0.45753   1.00
Si1      0.67918    0.64159    0.54721   1.00
C6       0.58877    0.71759    0.42462   1.00
C6       0.59724    0.74669    0.50402   1.00
C6       0.63480    0.78796    0.43747   1.00
C6       0.72658    0.62691    0.53307   1.00
C6       0.67440    0.63717    0.59802   1.00
C6       0.64393    0.61132    0.52523   1.00
C6       0.60968    0.69972    0.38806   1.00
H2       0.57950    0.69259    0.44209   1.00
C6       0.55017    0.73631    0.40853   1.00
H2       0.60361    0.71807    0.51642   1.00
C6       0.61408    0.77706    0.53366   1.00
C6       0.55188    0.75137    0.50664   1.00
H2       0.65098    0.77842    0.41169   1.00
C6       0.60259    0.81665    0.42228   1.00
C6       0.66323    0.81476    0.46151   1.00
C6       0.73844    0.63192    0.48929   1.00
C6       0.76264    0.64033    0.55775   1.00
H2       0.72559    0.59544    0.53788   1.00
H2       0.69811    0.65506    0.60949   1.00
C6       0.63623    0.65450    0.61622   1.00
C6       0.67972    0.59559    0.61607   1.00
H2       0.61999    0.61081    0.54625   1.00
C6       0.62537    0.62668    0.48664   1.00
C6       0.65487    0.56761    0.51756   1.00
H2       0.63379    0.68067    0.39654   1.00
H2       0.62135    0.72256    0.36910   1.00
H2       0.58960    0.68190    0.37083   1.00
H2       0.52815    0.71368    0.40392   1.00
H2       0.53771    0.75783    0.42822   1.00
H2       0.55449    0.75058    0.38036   1.00
H2       0.60402    0.77071    0.56328   1.00
H2       0.64580    0.77643    0.53468   1.00
H2       0.60466    0.80663    0.52648   1.00
H2       0.53685    0.72780    0.49138   1.00
H2       0.54182    0.75016    0.53692   1.00
H2       0.54247    0.77930    0.49450   1.00
H2       0.58089    0.82258    0.44486   1.00
H2       0.61485    0.84461    0.41292   1.00
H2       0.58794    0.80504    0.39668   1.00
H2       0.64752    0.83447    0.48098   1.00
H2       0.68375    0.79862    0.47932   1.00
H2       0.68049    0.83291    0.44172   1.00
H2       0.74848    0.66144    0.48312   1.00
H2       0.76242    0.61220    0.48191   1.00
H2       0.71451    0.62523    0.46952   1.00
H2       0.78891    0.62457    0.54875   1.00
H2       0.76880    0.67127    0.55426   1.00
H2       0.75886    0.63434    0.58878   1.00
H2       0.63890    0.65640    0.64798   1.00
H2       0.63068    0.68407    0.60565   1.00
H2       0.61070    0.63665    0.60965   1.00
H2       0.70644    0.58162    0.60584   1.00
H2       0.68179    0.59745    0.64788   1.00
H2       0.65504    0.57665    0.60915   1.00
H2       0.64689    0.62994    0.46344   1.00
H2       0.60226    0.60737    0.47619   1.00
H2       0.61216    0.65503    0.49166   1.00
H2       0.62901    0.55069    0.50956   1.00
H2       0.67593    0.56487    0.49378   1.00
H2       0.66720    0.55382    0.54343   1.00
C4       0.25302    0.25040    1.02084   1.00
C4       0.25259    0.24981    0.97912   1.00
C3       0.28442    0.23589    1.04364   1.00
C3       0.28182    0.23150    0.95616   1.00
C3       0.22009    0.26575    1.04123   1.00
C3       0.22140    0.26857    0.95886   1.00
C2       0.25083    0.25087    1.10512   1.00
C2       0.24917    0.24913    0.89488   1.00
C3       0.28329    0.23590    1.08462   1.00
C3       0.28038    0.23147    0.91519   1.00
C3       0.21983    0.26617    1.08258   1.00
C3       0.21961    0.26676    0.91762   1.00
H1       0.30910    0.22501    1.03115   1.00
H1       0.30490    0.21743    0.96852   1.00
C5       0.18773    0.28074    1.02020   1.00
C5       0.19197    0.28872    0.97980   1.00
H1       0.30675    0.22476    1.09955   1.00
H1       0.30251    0.21806    0.90010   1.00
H1       0.19649    0.27826    1.09680   1.00
H1       0.19582    0.27816    0.90368   1.00
O3       0.15360    0.28942    1.03961   1.00
O3       0.16615    0.31335    0.96099   1.00
Si1      0.11900    0.25678    1.04247   1.00
Si1      0.17918    0.35841    0.95279   1.00
C6       0.08877    0.28241    1.07538   1.00
C6       0.09724    0.25331    0.99598   1.00
C6       0.13480    0.21204    1.06253   1.00
C6       0.22658    0.37309    0.96693   1.00
C6       0.17440    0.36283    0.90198   1.00
C6       0.14393    0.38868    0.97477   1.00
C6       0.10968    0.30028    1.11194   1.00
H2       0.07950    0.30741    1.05791   1.00
C6       0.05017    0.26369    1.09147   1.00
H2       0.10361    0.28193    0.98358   1.00
C6       0.11408    0.22294    0.96634   1.00
C6       0.05188    0.24863    0.99336   1.00
H2       0.15098    0.22158    1.08831   1.00
C6       0.10259    0.18335    1.07772   1.00
C6       0.16323    0.18524    1.03849   1.00
C6       0.23844    0.36808    1.01071   1.00
C6       0.26264    0.35967    0.94225   1.00
H2       0.22559    0.40456    0.96212   1.00
H2       0.19811    0.34494    0.89051   1.00
C6       0.13623    0.34550    0.88378   1.00
C6       0.17972    0.40441    0.88393   1.00
H2       0.11999    0.38919    0.95375   1.00
C6       0.12537    0.37332    1.01336   1.00
C6       0.15487    0.43239    0.98244   1.00
H2       0.13379    0.31933    1.10346   1.00
H2       0.12135    0.27744    1.13090   1.00
H2       0.08960    0.31810    1.12917   1.00
H2       0.02815    0.28632    1.09608   1.00
H2       0.03771    0.24217    1.07178   1.00
H2       0.05449    0.24942    1.11964   1.00
H2       0.10402    0.22929    0.93672   1.00
H2       0.14580    0.22357    0.96532   1.00
H2       0.10466    0.19337    0.97352   1.00
H2       0.03685    0.27220    1.00862   1.00
H2       0.04182    0.24984    0.96308   1.00
H2       0.04247    0.22070    1.00550   1.00
H2       0.08089    0.17742    1.05514   1.00
H2       0.11485    0.15539    1.08708   1.00
H2       0.08794    0.19496    1.10332   1.00
H2       0.14752    0.16553    1.01902   1.00
H2       0.18375    0.20138    1.02068   1.00
H2       0.18049    0.16709    1.05828   1.00
H2       0.24848    0.33856    1.01688   1.00
H2       0.26242    0.38780    1.01809   1.00
H2       0.21451    0.37477    1.03048   1.00
H2       0.28891    0.37543    0.95125   1.00
H2       0.26880    0.32873    0.94574   1.00
H2       0.25886    0.36566    0.91122   1.00
H2       0.13890    0.34360    0.85202   1.00
H2       0.13068    0.31593    0.89435   1.00
H2       0.11070    0.36335    0.89035   1.00
H2       0.20644    0.41838    0.89416   1.00
H2       0.18179    0.40255    0.85212   1.00
H2       0.15504    0.42335    0.89085   1.00
H2       0.14689    0.37006    1.03656   1.00
H2       0.10226    0.39263    1.02381   1.00
H2       0.11216    0.34497    1.00834   1.00
H2       0.12901    0.44931    0.99044   1.00
H2       0.17593    0.43513    1.00622   1.00
H2       0.16720    0.44618    0.95657   1.00
C4       0.25040    0.52084    0.75302   1.00
C4       0.24981    0.47912    0.75259   1.00
C3       0.23589    0.54364    0.78442   1.00
C3       0.23150    0.45616    0.78182   1.00
C3       0.26575    0.54123    0.72009   1.00
C3       0.26857    0.45886    0.72140   1.00
C2       0.25087    0.60512    0.75083   1.00
C2       0.24913    0.39488    0.74917   1.00
C3       0.23590    0.58462    0.78329   1.00
C3       0.23147    0.41519    0.78038   1.00
C3       0.26617    0.58258    0.71983   1.00
C3       0.26676    0.41762    0.71961   1.00
H1       0.22501    0.53115    0.80910   1.00
H1       0.21743    0.46852    0.80490   1.00
C5       0.28074    0.52020    0.68773   1.00
C5       0.28872    0.47980    0.69197   1.00
H1       0.22476    0.59955    0.80675   1.00
H1       0.21806    0.40010    0.80251   1.00
H1       0.27826    0.59680    0.69649   1.00
H1       0.27816    0.40368    0.69582   1.00
O3       0.28942    0.53961    0.65360   1.00
O3       0.31335    0.46099    0.66615   1.00
Si1      0.25678    0.54247    0.61900   1.00
Si1      0.35841    0.45279    0.67918   1.00
C6       0.28241    0.57538    0.58877   1.00
C6       0.25331    0.49598    0.59724   1.00
C6       0.21204    0.56253    0.63480   1.00
C6       0.37309    0.46693    0.72658   1.00
C6       0.36283    0.40198    0.67440   1.00
C6       0.38868    0.47477    0.64393   1.00
C6       0.30028    0.61194    0.60968   1.00
H2       0.30741    0.55791    0.57950   1.00
C6       0.26369    0.59147    0.55017   1.00
H2       0.28193    0.48358    0.60361   1.00
C6       0.22294    0.46634    0.61408   1.00
C6       0.24863    0.49336    0.55188   1.00
H2       0.22158    0.58831    0.65098   1.00
C6       0.18335    0.57772    0.60259   1.00
C6       0.18524    0.53849    0.66323   1.00
C6       0.36808    0.51071    0.73844   1.00
C6       0.35967    0.44225    0.76264   1.00
H2       0.40456    0.46212    0.72559   1.00
H2       0.34494    0.39051    0.69811   1.00
C6       0.34550    0.38378    0.63623   1.00
C6       0.40441    0.38393    0.67972   1.00
H2       0.38919    0.45375    0.61999   1.00
C6       0.37332    0.51336    0.62537   1.00
C6       0.43239    0.48244    0.65487   1.00
H2       0.31933    0.60346    0.63379   1.00
H2       0.27744    0.63090    0.62135   1.00
H2       0.31810    0.62917    0.58960   1.00
H2       0.28632    0.59608    0.52815   1.00
H2       0.24217    0.57178    0.53771   1.00
H2       0.24942    0.61964    0.55449   1.00
H2       0.22929    0.43672    0.60402   1.00
H2       0.22357    0.46532    0.64580   1.00
H2       0.19337    0.47352    0.60466   1.00
H2       0.27220    0.50862    0.53685   1.00
H2       0.24984    0.46308    0.54182   1.00
H2       0.22070    0.50550    0.54247   1.00
H2       0.17742    0.55514    0.58089   1.00
H2       0.15539    0.58708    0.61485   1.00
H2       0.19496    0.60332    0.58794   1.00
H2       0.16553    0.51902    0.64752   1.00
H2       0.20138    0.52068    0.68375   1.00
H2       0.16709    0.55828    0.68049   1.00
H2       0.33856    0.51688    0.74848   1.00
H2       0.38780    0.51809    0.76242   1.00
H2       0.37477    0.53048    0.71451   1.00
H2       0.37543    0.45125    0.78891   1.00
H2       0.32873    0.44574    0.76880   1.00
H2       0.36566    0.41122    0.75886   1.00
H2       0.34360    0.35202    0.63890   1.00
H2       0.31593    0.39435    0.63068   1.00
H2       0.36335    0.39035    0.61070   1.00
H2       0.41838    0.39416    0.70644   1.00
H2       0.40255    0.35212    0.68179   1.00
H2       0.42335    0.39085    0.65504   1.00
H2       0.37006    0.53656    0.64689   1.00
H2       0.39263    0.52381    0.60226   1.00
H2       0.34497    0.50834    0.61216   1.00
H2       0.44931    0.49044    0.62901   1.00
H2       0.43513    0.50622    0.67593   1.00
H2       0.44618    0.45657    0.66720   1.00
C4       -0.02084   0.25302    0.74960   1.00
C4       0.02088    0.25259    0.75019   1.00
C3       -0.04364   0.28442    0.76411   1.00
C3       0.04384    0.28182    0.76850   1.00
C3       -0.04123   0.22009    0.73425   1.00
C3       0.04114    0.22140    0.73143   1.00
C2       -0.10512   0.25083    0.74913   1.00
C2       0.10512    0.24917    0.75087   1.00
C3       -0.08462   0.28329    0.76410   1.00
C3       0.08481    0.28038    0.76853   1.00
C3       -0.08258   0.21983    0.73383   1.00
C3       0.08238    0.21961    0.73324   1.00
H1       -0.03115   0.30910    0.77499   1.00
H1       0.03148    0.30490    0.78257   1.00
C5       -0.02020   0.18773    0.71926   1.00
C5       0.02020    0.19197    0.71128   1.00
H1       -0.09955   0.30675    0.77524   1.00
H1       0.09990    0.30251    0.78194   1.00
H1       -0.09680   0.19649    0.72174   1.00
H1       0.09632    0.19582    0.72184   1.00
O3       -0.03961   0.15360    0.71058   1.00
O3       0.03901    0.16615    0.68665   1.00
Si1      -0.04247   0.11900    0.74322   1.00
Si1      0.04721    0.17918    0.64159   1.00
C6       -0.07538   0.08877    0.71759   1.00
C6       0.00402    0.09724    0.74669   1.00
C6       -0.06253   0.13480    0.78796   1.00
C6       0.03307    0.22658    0.62691   1.00
C6       0.09802    0.17440    0.63717   1.00
C6       0.02523    0.14393    0.61132   1.00
C6       -0.11194   0.10968    0.69972   1.00
H2       -0.05791   0.07950    0.69259   1.00
C6       -0.09147   0.05017    0.73631   1.00
H2       0.01642    0.10361    0.71807   1.00
C6       0.03366    0.11408    0.77706   1.00
C6       0.00664    0.05188    0.75137   1.00
H2       -0.08831   0.15098    0.77842   1.00
C6       -0.07772   0.10259    0.81665   1.00
C6       -0.03849   0.16323    0.81476   1.00
C6       -0.01071   0.23844    0.63192   1.00
C6       0.05775    0.26264    0.64033   1.00
H2       0.03788    0.22559    0.59544   1.00
H2       0.10949    0.19811    0.65506   1.00
C6       0.11622    0.13623    0.65450   1.00
C6       0.11607    0.17972    0.59559   1.00
H2       0.04625    0.11999    0.61081   1.00
C6       -0.01336   0.12537    0.62668   1.00
C6       0.01756    0.15487    0.56761   1.00
H2       -0.10346   0.13379    0.68067   1.00
H2       -0.13090   0.12135    0.72256   1.00
H2       -0.12917   0.08960    0.68190   1.00
H2       -0.09608   0.02815    0.71368   1.00
H2       -0.07178   0.03771    0.75783   1.00
H2       -0.11964   0.05449    0.75058   1.00
H2       0.06328    0.10402    0.77071   1.00
H2       0.03468    0.14580    0.77643   1.00
H2       0.02648    0.10466    0.80663   1.00
H2       -0.00862   0.03685    0.72780   1.00
H2       0.03692    0.04182    0.75016   1.00
H2       -0.00550   0.04247    0.77930   1.00
H2       -0.05514   0.08089    0.82258   1.00
H2       -0.08708   0.11485    0.84461   1.00
H2       -0.10332   0.08794    0.80504   1.00
H2       -0.01902   0.14752    0.83447   1.00
H2       -0.02068   0.18375    0.79862   1.00
H2       -0.05828   0.18049    0.83291   1.00
H2       -0.01688   0.24848    0.66144   1.00
H2       -0.01809   0.26242    0.61220   1.00
H2       -0.03048   0.21451    0.62523   1.00
H2       0.04875    0.28891    0.62457   1.00
H2       0.05426    0.26880    0.67127   1.00
H2       0.08878    0.25886    0.63434   1.00
H2       0.14798    0.13890    0.65640   1.00
H2       0.10565    0.13068    0.68407   1.00
H2       0.10965    0.11070    0.63665   1.00
H2       0.10584    0.20644    0.58162   1.00
H2       0.14788    0.18179    0.59745   1.00
H2       0.10915    0.15504    0.57665   1.00
H2       -0.03656   0.14689    0.62994   1.00
H2       -0.02381   0.10226    0.60737   1.00
H2       -0.00834   0.11216    0.65503   1.00
H2       0.00956    0.12901    0.55069   1.00
H2       -0.00622   0.17593    0.56487   1.00
H2       0.04343    0.16720    0.55382   1.00
C4       0.52084    0.25302    0.75040   1.00
C4       0.47912    0.25259    0.74981   1.00
C3       0.54364    0.28442    0.73589   1.00
C3       0.45616    0.28182    0.73150   1.00
C3       0.54123    0.22009    0.76575   1.00
C3       0.45886    0.22140    0.76857   1.00
C2       0.60512    0.25083    0.75087   1.00
C2       0.39488    0.24917    0.74913   1.00
C3       0.58462    0.28329    0.73590   1.00
C3       0.41519    0.28038    0.73147   1.00
C3       0.58258    0.21983    0.76617   1.00
C3       0.41762    0.21961    0.76676   1.00
H1       0.53115    0.30910    0.72501   1.00
H1       0.46852    0.30490    0.71743   1.00
C5       0.52020    0.18773    0.78074   1.00
C5       0.47980    0.19197    0.78872   1.00
H1       0.59955    0.30675    0.72476   1.00
H1       0.40010    0.30251    0.71806   1.00
H1       0.59680    0.19649    0.77826   1.00
H1       0.40368    0.19582    0.77816   1.00
O3       0.53961    0.15360    0.78942   1.00
O3       0.46099    0.16615    0.81335   1.00
Si1      0.54247    0.11900    0.75678   1.00
Si1      0.45279    0.17918    0.85841   1.00
C6       0.57538    0.08877    0.78241   1.00
C6       0.49598    0.09724    0.75331   1.00
C6       0.56253    0.13480    0.71204   1.00
C6       0.46693    0.22658    0.87309   1.00
C6       0.40198    0.17440    0.86283   1.00
C6       0.47477    0.14393    0.88868   1.00
C6       0.61194    0.10968    0.80028   1.00
H2       0.55791    0.07950    0.80741   1.00
C6       0.59147    0.05017    0.76369   1.00
H2       0.48358    0.10361    0.78193   1.00
C6       0.46634    0.11408    0.72294   1.00
C6       0.49336    0.05188    0.74863   1.00
H2       0.58831    0.15098    0.72158   1.00
C6       0.57772    0.10259    0.68335   1.00
C6       0.53849    0.16323    0.68524   1.00
C6       0.51071    0.23844    0.86808   1.00
C6       0.44225    0.26264    0.85967   1.00
H2       0.46212    0.22559    0.90456   1.00
H2       0.39051    0.19811    0.84494   1.00
C6       0.38378    0.13623    0.84550   1.00
C6       0.38393    0.17972    0.90441   1.00
H2       0.45375    0.11999    0.88919   1.00
C6       0.51336    0.12537    0.87332   1.00
C6       0.48244    0.15487    0.93239   1.00
H2       0.60346    0.13379    0.81933   1.00
H2       0.63090    0.12135    0.77744   1.00
H2       0.62917    0.08960    0.81810   1.00
H2       0.59608    0.02815    0.78632   1.00
H2       0.57178    0.03771    0.74217   1.00
H2       0.61964    0.05449    0.74942   1.00
H2       0.43672    0.10402    0.72929   1.00
H2       0.46532    0.14580    0.72357   1.00
H2       0.47352    0.10466    0.69337   1.00
H2       0.50862    0.03685    0.77220   1.00
H2       0.46308    0.04182    0.74984   1.00
H2       0.50550    0.04247    0.72070   1.00
H2       0.55514    0.08089    0.67742   1.00
H2       0.58708    0.11485    0.65539   1.00
H2       0.60332    0.08794    0.69496   1.00
H2       0.51902    0.14752    0.66553   1.00
H2       0.52068    0.18375    0.70138   1.00
H2       0.55828    0.18049    0.66709   1.00
H2       0.51688    0.24848    0.83856   1.00
H2       0.51809    0.26242    0.88780   1.00
H2       0.53048    0.21451    0.87477   1.00
H2       0.45125    0.28891    0.87543   1.00
H2       0.44574    0.26880    0.82873   1.00
H2       0.41122    0.25886    0.86566   1.00
H2       0.35202    0.13890    0.84360   1.00
H2       0.39435    0.13068    0.81593   1.00
H2       0.39035    0.11070    0.86335   1.00
H2       0.39416    0.20644    0.91838   1.00
H2       0.35212    0.18179    0.90255   1.00
H2       0.39085    0.15504    0.92335   1.00
H2       0.53656    0.14689    0.87006   1.00
H2       0.52381    0.10226    0.89263   1.00
H2       0.50834    0.11216    0.84497   1.00
H2       0.49044    0.12901    0.94931   1.00
H2       0.50622    0.17593    0.93513   1.00
H2       0.45657    0.16720    0.94618   1.00
C4       0.24960    -0.02084   0.75302   1.00
C4       0.25019    0.02088    0.75259   1.00
C3       0.26411    -0.04364   0.78442   1.00
C3       0.26850    0.04384    0.78182   1.00
C3       0.23425    -0.04123   0.72009   1.00
C3       0.23143    0.04114    0.72140   1.00
C2       0.24913    -0.10512   0.75083   1.00
C2       0.25087    0.10512    0.74917   1.00
C3       0.26410    -0.08462   0.78329   1.00
C3       0.26853    0.08481    0.78038   1.00
C3       0.23383    -0.08258   0.71983   1.00
C3       0.23324    0.08238    0.71961   1.00
H1       0.27499    -0.03115   0.80910   1.00
H1       0.28257    0.03148    0.80490   1.00
C5       0.21926    -0.02020   0.68773   1.00
C5       0.21128    0.02020    0.69197   1.00
H1       0.27524    -0.09955   0.80675   1.00
H1       0.28194    0.09990    0.80251   1.00
H1       0.22174    -0.09680   0.69649   1.00
H1       0.22184    0.09632    0.69582   1.00
O3       0.21058    -0.03961   0.65360   1.00
O3       0.18665    0.03901    0.66615   1.00
Si1      0.24322    -0.04247   0.61900   1.00
Si1      0.14159    0.04721    0.67918   1.00
C6       0.21759    -0.07538   0.58877   1.00
C6       0.24669    0.00402    0.59724   1.00
C6       0.28796    -0.06253   0.63480   1.00
C6       0.12691    0.03307    0.72658   1.00
C6       0.13717    0.09802    0.67440   1.00
C6       0.11132    0.02523    0.64393   1.00
C6       0.19972    -0.11194   0.60968   1.00
H2       0.19259    -0.05791   0.57950   1.00
C6       0.23631    -0.09147   0.55017   1.00
H2       0.21807    0.01642    0.60361   1.00
C6       0.27706    0.03366    0.61408   1.00
C6       0.25137    0.00664    0.55188   1.00
H2       0.27842    -0.08831   0.65098   1.00
C6       0.31665    -0.07772   0.60259   1.00
C6       0.31476    -0.03849   0.66323   1.00
C6       0.13192    -0.01071   0.73844   1.00
C6       0.14033    0.05775    0.76264   1.00
H2       0.09544    0.03788    0.72559   1.00
H2       0.15506    0.10949    0.69811   1.00
C6       0.15450    0.11622    0.63623   1.00
C6       0.09559    0.11607    0.67972   1.00
H2       0.11081    0.04625    0.61999   1.00
C6       0.12668    -0.01336   0.62537   1.00
C6       0.06761    0.01756    0.65487   1.00
H2       0.18067    -0.10346   0.63379   1.00
H2       0.22256    -0.13090   0.62135   1.00
H2       0.18190    -0.12917   0.58960   1.00
H2       0.21368    -0.09608   0.52815   1.00
H2       0.25783    -0.07178   0.53771   1.00
H2       0.25058    -0.11964   0.55449   1.00
H2       0.27071    0.06328    0.60402   1.00
H2       0.27643    0.03468    0.64580   1.00
H2       0.30663    0.02648    0.60466   1.00
H2       0.22780    -0.00862   0.53685   1.00
H2       0.25016    0.03692    0.54182   1.00
H2       0.27930    -0.00550   0.54247   1.00
H2       0.32258    -0.05514   0.58089   1.00
H2       0.34461    -0.08708   0.61485   1.00
H2       0.30504    -0.10332   0.58794   1.00
H2       0.33447    -0.01902   0.64752   1.00
H2       0.29862    -0.02068   0.68375   1.00
H2       0.33291    -0.05828   0.68049   1.00
H2       0.16144    -0.01688   0.74848   1.00
H2       0.11220    -0.01809   0.76242   1.00
H2       0.12523    -0.03048   0.71451   1.00
H2       0.12457    0.04875    0.78891   1.00
H2       0.17127    0.05426    0.76880   1.00
H2       0.13434    0.08878    0.75886   1.00
H2       0.15640    0.14798    0.63890   1.00
H2       0.18407    0.10565    0.63068   1.00
H2       0.13665    0.10965    0.61070   1.00
H2       0.08162    0.10584    0.70644   1.00
H2       0.09745    0.14788    0.68179   1.00
H2       0.07665    0.10915    0.65504   1.00
H2       0.12994    -0.03656   0.64689   1.00
H2       0.10737    -0.02381   0.60226   1.00
H2       0.15503    -0.00834   0.61216   1.00
H2       0.05069    0.00956    0.62901   1.00
H2       0.06487    -0.00622   0.67593   1.00
H2       0.05382    0.04343    0.66720   1.00
C4       0.25302    0.24960    0.47916   1.00
C4       0.25259    0.25019    0.52088   1.00
C3       0.28442    0.26411    0.45636   1.00
C3       0.28182    0.26850    0.54384   1.00
C3       0.22009    0.23425    0.45877   1.00
C3       0.22140    0.23143    0.54114   1.00
C2       0.25083    0.24913    0.39488   1.00
C2       0.24917    0.25087    0.60512   1.00
C3       0.28329    0.26410    0.41538   1.00
C3       0.28038    0.26853    0.58481   1.00
C3       0.21983    0.23383    0.41742   1.00
C3       0.21961    0.23324    0.58238   1.00
H1       0.30910    0.27499    0.46885   1.00
H1       0.30490    0.28257    0.53148   1.00
C5       0.18773    0.21926    0.47980   1.00
C5       0.19197    0.21128    0.52020   1.00
H1       0.30675    0.27524    0.40045   1.00
H1       0.30251    0.28194    0.59990   1.00
H1       0.19649    0.22174    0.40320   1.00
H1       0.19582    0.22184    0.59632   1.00
O3       0.15360    0.21058    0.46039   1.00
O3       0.16615    0.18665    0.53901   1.00
Si1      0.11900    0.24322    0.45753   1.00
Si1      0.17918    0.14159    0.54721   1.00
C6       0.08877    0.21759    0.42462   1.00
C6       0.09724    0.24669    0.50402   1.00
C6       0.13480    0.28796    0.43747   1.00
C6       0.22658    0.12691    0.53307   1.00
C6       0.17440    0.13717    0.59802   1.00
C6       0.14393    0.11132    0.52523   1.00
C6       0.10968    0.19972    0.38806   1.00
H2       0.07950    0.19259    0.44209   1.00
C6       0.05017    0.23631    0.40853   1.00
H2       0.10361    0.21807    0.51642   1.00
C6       0.11408    0.27706    0.53366   1.00
C6       0.05188    0.25137    0.50664   1.00
H2       0.15098    0.27842    0.41169   1.00
C6       0.10259    0.31665    0.42228   1.00
C6       0.16323    0.31476    0.46151   1.00
C6       0.23844    0.13192    0.48929   1.00
C6       0.26264    0.14033    0.55775   1.00
H2       0.22559    0.09544    0.53788   1.00
H2       0.19811    0.15506    0.60949   1.00
C6       0.13623    0.15450    0.61622   1.00
C6       0.17972    0.09559    0.61607   1.00
H2       0.11999    0.11081    0.54625   1.00
C6       0.12537    0.12668    0.48664   1.00
C6       0.15487    0.06761    0.51756   1.00
H2       0.13379    0.18067    0.39654   1.00
H2       0.12135    0.22256    0.36910   1.00
H2       0.08960    0.18190    0.37083   1.00
H2       0.02815    0.21368    0.40392   1.00
H2       0.03771    0.25783    0.42822   1.00
H2       0.05449    0.25058    0.38036   1.00
H2       0.10402    0.27071    0.56328   1.00
H2       0.14580    0.27643    0.53468   1.00
H2       0.10466    0.30663    0.52648   1.00
H2       0.03685    0.22780    0.49138   1.00
H2       0.04182    0.25016    0.53692   1.00
H2       0.04247    0.27930    0.49450   1.00
H2       0.08089    0.32258    0.44486   1.00
H2       0.11485    0.34461    0.41292   1.00
H2       0.08794    0.30504    0.39668   1.00
H2       0.14752    0.33447    0.48098   1.00
H2       0.18375    0.29862    0.47932   1.00
H2       0.18049    0.33291    0.44172   1.00
H2       0.24848    0.16144    0.48312   1.00
H2       0.26242    0.11220    0.48191   1.00
H2       0.21451    0.12523    0.46952   1.00
H2       0.28891    0.12457    0.54875   1.00
H2       0.26880    0.17127    0.55426   1.00
H2       0.25886    0.13434    0.58878   1.00
H2       0.13890    0.15640    0.64798   1.00
H2       0.13068    0.18407    0.60565   1.00
H2       0.11070    0.13665    0.60965   1.00
H2       0.20644    0.08162    0.60584   1.00
H2       0.18179    0.09745    0.64788   1.00
H2       0.15504    0.07665    0.60915   1.00
H2       0.14689    0.12994    0.46344   1.00
H2       0.10226    0.10737    0.47619   1.00
H2       0.11216    0.15503    0.49166   1.00
H2       0.12901    0.05069    0.50956   1.00
H2       0.17593    0.06487    0.49378   1.00
H2       0.16720    0.05382    0.54343   1.00
C4       0.25302    0.75040    0.52084   1.00
C4       0.25259    0.74981    0.47912   1.00
C3       0.28442    0.73589    0.54364   1.00
C3       0.28182    0.73150    0.45616   1.00
C3       0.22009    0.76575    0.54123   1.00
C3       0.22140    0.76857    0.45886   1.00
C2       0.25083    0.75087    0.60512   1.00
C2       0.24917    0.74913    0.39488   1.00
C3       0.28329    0.73590    0.58462   1.00
C3       0.28038    0.73147    0.41519   1.00
C3       0.21983    0.76617    0.58258   1.00
C3       0.21961    0.76676    0.41762   1.00
H1       0.30910    0.72501    0.53115   1.00
H1       0.30490    0.71743    0.46852   1.00
C5       0.18773    0.78074    0.52020   1.00
C5       0.19197    0.78872    0.47980   1.00
H1       0.30675    0.72476    0.59955   1.00
H1       0.30251    0.71806    0.40010   1.00
H1       0.19649    0.77826    0.59680   1.00
H1       0.19582    0.77816    0.40368   1.00
O3       0.15360    0.78942    0.53961   1.00
O3       0.16615    0.81335    0.46099   1.00
Si1      0.11900    0.75678    0.54247   1.00
Si1      0.17918    0.85841    0.45279   1.00
C6       0.08877    0.78241    0.57538   1.00
C6       0.09724    0.75331    0.49598   1.00
C6       0.13480    0.71204    0.56253   1.00
C6       0.22658    0.87309    0.46693   1.00
C6       0.17440    0.86283    0.40198   1.00
C6       0.14393    0.88868    0.47477   1.00
C6       0.10968    0.80028    0.61194   1.00
H2       0.07950    0.80741    0.55791   1.00
C6       0.05017    0.76369    0.59147   1.00
H2       0.10361    0.78193    0.48358   1.00
C6       0.11408    0.72294    0.46634   1.00
C6       0.05188    0.74863    0.49336   1.00
H2       0.15098    0.72158    0.58831   1.00
C6       0.10259    0.68335    0.57772   1.00
C6       0.16323    0.68524    0.53849   1.00
C6       0.23844    0.86808    0.51071   1.00
C6       0.26264    0.85967    0.44225   1.00
H2       0.22559    0.90456    0.46212   1.00
H2       0.19811    0.84494    0.39051   1.00
C6       0.13623    0.84550    0.38378   1.00
C6       0.17972    0.90441    0.38393   1.00
H2       0.11999    0.88919    0.45375   1.00
C6       0.12537    0.87332    0.51336   1.00
C6       0.15487    0.93239    0.48244   1.00
H2       0.13379    0.81933    0.60346   1.00
H2       0.12135    0.77744    0.63090   1.00
H2       0.08960    0.81810    0.62917   1.00
H2       0.02815    0.78632    0.59608   1.00
H2       0.03771    0.74217    0.57178   1.00
H2       0.05449    0.74942    0.61964   1.00
H2       0.10402    0.72929    0.43672   1.00
H2       0.14580    0.72357    0.46532   1.00
H2       0.10466    0.69337    0.47352   1.00
H2       0.03685    0.77220    0.50862   1.00
H2       0.04182    0.74984    0.46308   1.00
H2       0.04247    0.72070    0.50550   1.00
H2       0.08089    0.67742    0.55514   1.00
H2       0.11485    0.65539    0.58708   1.00
H2       0.08794    0.69496    0.60332   1.00
H2       0.14752    0.66553    0.51902   1.00
H2       0.18375    0.70138    0.52068   1.00
H2       0.18049    0.66709    0.55828   1.00
H2       0.24848    0.83856    0.51688   1.00
H2       0.26242    0.88780    0.51809   1.00
H2       0.21451    0.87477    0.53048   1.00
H2       0.28891    0.87543    0.45125   1.00
H2       0.26880    0.82873    0.44574   1.00
H2       0.25886    0.86566    0.41122   1.00
H2       0.13890    0.84360    0.35202   1.00
H2       0.13068    0.81593    0.39435   1.00
H2       0.11070    0.86335    0.39035   1.00
H2       0.20644    0.91838    0.39416   1.00
H2       0.18179    0.90255    0.35212   1.00
H2       0.15504    0.92335    0.39085   1.00
H2       0.14689    0.87006    0.53656   1.00
H2       0.10226    0.89263    0.52381   1.00
H2       0.11216    0.84497    0.50834   1.00
H2       0.12901    0.94931    0.49044   1.00
H2       0.17593    0.93513    0.50622   1.00
H2       0.16720    0.94618    0.45657   1.00
C4       0.25040    1.02084    0.25302   1.00
C4       0.24981    0.97912    0.25259   1.00
C3       0.23589    1.04364    0.28442   1.00
C3       0.23150    0.95616    0.28182   1.00
C3       0.26575    1.04123    0.22009   1.00
C3       0.26857    0.95886    0.22140   1.00
C2       0.25087    1.10512    0.25083   1.00
C2       0.24913    0.89488    0.24917   1.00
C3       0.23590    1.08462    0.28329   1.00
C3       0.23147    0.91519    0.28038   1.00
C3       0.26617    1.08258    0.21983   1.00
C3       0.26676    0.91762    0.21961   1.00
H1       0.22501    1.03115    0.30910   1.00
H1       0.21743    0.96852    0.30490   1.00
C5       0.28074    1.02020    0.18773   1.00
C5       0.28872    0.97980    0.19197   1.00
H1       0.22476    1.09955    0.30675   1.00
H1       0.21806    0.90010    0.30251   1.00
H1       0.27826    1.09680    0.19649   1.00
H1       0.27816    0.90368    0.19582   1.00
O3       0.28942    1.03961    0.15360   1.00
O3       0.31335    0.96099    0.16615   1.00
Si1      0.25678    1.04247    0.11900   1.00
Si1      0.35841    0.95279    0.17918   1.00
C6       0.28241    1.07538    0.08877   1.00
C6       0.25331    0.99598    0.09724   1.00
C6       0.21204    1.06253    0.13480   1.00
C6       0.37309    0.96693    0.22658   1.00
C6       0.36283    0.90198    0.17440   1.00
C6       0.38868    0.97477    0.14393   1.00
C6       0.30028    1.11194    0.10968   1.00
H2       0.30741    1.05791    0.07950   1.00
C6       0.26369    1.09147    0.05017   1.00
H2       0.28193    0.98358    0.10361   1.00
C6       0.22294    0.96634    0.11408   1.00
C6       0.24863    0.99336    0.05188   1.00
H2       0.22158    1.08831    0.15098   1.00
C6       0.18335    1.07772    0.10259   1.00
C6       0.18524    1.03849    0.16323   1.00
C6       0.36808    1.01071    0.23844   1.00
C6       0.35967    0.94225    0.26264   1.00
H2       0.40456    0.96212    0.22559   1.00
H2       0.34494    0.89051    0.19811   1.00
C6       0.34550    0.88378    0.13623   1.00
C6       0.40441    0.88393    0.17972   1.00
H2       0.38919    0.95375    0.11999   1.00
C6       0.37332    1.01336    0.12537   1.00
C6       0.43239    0.98244    0.15487   1.00
H2       0.31933    1.10346    0.13379   1.00
H2       0.27744    1.13090    0.12135   1.00
H2       0.31810    1.12917    0.08960   1.00
H2       0.28632    1.09608    0.02815   1.00
H2       0.24217    1.07178    0.03771   1.00
H2       0.24942    1.11964    0.05449   1.00
H2       0.22929    0.93672    0.10402   1.00
H2       0.22357    0.96532    0.14580   1.00
H2       0.19337    0.97352    0.10466   1.00
H2       0.27220    1.00862    0.03685   1.00
H2       0.24984    0.96308    0.04182   1.00
H2       0.22070    1.00550    0.04247   1.00
H2       0.17742    1.05514    0.08089   1.00
H2       0.15539    1.08708    0.11485   1.00
H2       0.19496    1.10332    0.08794   1.00
H2       0.16553    1.01902    0.14752   1.00
H2       0.20138    1.02068    0.18375   1.00
H2       0.16709    1.05828    0.18049   1.00
H2       0.33856    1.01688    0.24848   1.00
H2       0.38780    1.01809    0.26242   1.00
H2       0.37477    1.03048    0.21451   1.00
H2       0.37543    0.95125    0.28891   1.00
H2       0.32873    0.94574    0.26880   1.00
H2       0.36566    0.91122    0.25886   1.00
H2       0.34360    0.85202    0.13890   1.00
H2       0.31593    0.89435    0.13068   1.00
H2       0.36335    0.89035    0.11070   1.00
H2       0.41838    0.89416    0.20644   1.00
H2       0.40255    0.85212    0.18179   1.00
H2       0.42335    0.89085    0.15504   1.00
H2       0.37006    1.03656    0.14689   1.00
H2       0.39263    1.02381    0.10226   1.00
H2       0.34497    1.00834    0.11216   1.00
H2       0.44931    0.99044    0.12901   1.00
H2       0.43513    1.00622    0.17593   1.00
H2       0.44618    0.95657    0.16720   1.00
C4       -0.02084   0.75302    0.24960   1.00
C4       0.02088    0.75259    0.25019   1.00
C3       -0.04364   0.78442    0.26411   1.00
C3       0.04384    0.78182    0.26850   1.00
C3       -0.04123   0.72009    0.23425   1.00
C3       0.04114    0.72140    0.23143   1.00
C2       -0.10512   0.75083    0.24913   1.00
C2       0.10512    0.74917    0.25087   1.00
C3       -0.08462   0.78329    0.26410   1.00
C3       0.08481    0.78038    0.26853   1.00
C3       -0.08258   0.71983    0.23383   1.00
C3       0.08238    0.71961    0.23324   1.00
H1       -0.03115   0.80910    0.27499   1.00
H1       0.03148    0.80490    0.28257   1.00
C5       -0.02020   0.68773    0.21926   1.00
C5       0.02020    0.69197    0.21128   1.00
H1       -0.09955   0.80675    0.27524   1.00
H1       0.09990    0.80251    0.28194   1.00
H1       -0.09680   0.69649    0.22174   1.00
H1       0.09632    0.69582    0.22184   1.00
O3       -0.03961   0.65360    0.21058   1.00
O3       0.03901    0.66615    0.18665   1.00
Si1      -0.04247   0.61900    0.24322   1.00
Si1      0.04721    0.67918    0.14159   1.00
C6       -0.07538   0.58877    0.21759   1.00
C6       0.00402    0.59724    0.24669   1.00
C6       -0.06253   0.63480    0.28796   1.00
C6       0.03307    0.72658    0.12691   1.00
C6       0.09802    0.67440    0.13717   1.00
C6       0.02523    0.64393    0.11132   1.00
C6       -0.11194   0.60968    0.19972   1.00
H2       -0.05791   0.57950    0.19259   1.00
C6       -0.09147   0.55017    0.23631   1.00
H2       0.01642    0.60361    0.21807   1.00
C6       0.03366    0.61408    0.27706   1.00
C6       0.00664    0.55188    0.25137   1.00
H2       -0.08831   0.65098    0.27842   1.00
C6       -0.07772   0.60259    0.31665   1.00
C6       -0.03849   0.66323    0.31476   1.00
C6       -0.01071   0.73844    0.13192   1.00
C6       0.05775    0.76264    0.14033   1.00
H2       0.03788    0.72559    0.09544   1.00
H2       0.10949    0.69811    0.15506   1.00
C6       0.11622    0.63623    0.15450   1.00
C6       0.11607    0.67972    0.09559   1.00
H2       0.04625    0.61999    0.11081   1.00
C6       -0.01336   0.62537    0.12668   1.00
C6       0.01756    0.65487    0.06761   1.00
H2       -0.10346   0.63379    0.18067   1.00
H2       -0.13090   0.62135    0.22256   1.00
H2       -0.12917   0.58960    0.18190   1.00
H2       -0.09608   0.52815    0.21368   1.00
H2       -0.07178   0.53771    0.25783   1.00
H2       -0.11964   0.55449    0.25058   1.00
H2       0.06328    0.60402    0.27071   1.00
H2       0.03468    0.64580    0.27643   1.00
H2       0.02648    0.60466    0.30663   1.00
H2       -0.00862   0.53685    0.22780   1.00
H2       0.03692    0.54182    0.25016   1.00
H2       -0.00550   0.54247    0.27930   1.00
H2       -0.05514   0.58089    0.32258   1.00
H2       -0.08708   0.61485    0.34461   1.00
H2       -0.10332   0.58794    0.30504   1.00
H2       -0.01902   0.64752    0.33447   1.00
H2       -0.02068   0.68375    0.29862   1.00
H2       -0.05828   0.68049    0.33291   1.00
H2       -0.01688   0.74848    0.16144   1.00
H2       -0.01809   0.76242    0.11220   1.00
H2       -0.03048   0.71451    0.12523   1.00
H2       0.04875    0.78891    0.12457   1.00
H2       0.05426    0.76880    0.17127   1.00
H2       0.08878    0.75886    0.13434   1.00
H2       0.14798    0.63890    0.15640   1.00
H2       0.10565    0.63068    0.18407   1.00
H2       0.10965    0.61070    0.13665   1.00
H2       0.10584    0.70644    0.08162   1.00
H2       0.14788    0.68179    0.09745   1.00
H2       0.10915    0.65504    0.07665   1.00
H2       -0.03656   0.64689    0.12994   1.00
H2       -0.02381   0.60226    0.10737   1.00
H2       -0.00834   0.61216    0.15503   1.00
H2       0.00956    0.62901    0.05069   1.00
H2       -0.00622   0.67593    0.06487   1.00
H2       0.04343    0.66720    0.05382   1.00
C4       0.52084    0.75302    0.25040   1.00
C4       0.47912    0.75259    0.24981   1.00
C3       0.54364    0.78442    0.23589   1.00
C3       0.45616    0.78182    0.23150   1.00
C3       0.54123    0.72009    0.26575   1.00
C3       0.45886    0.72140    0.26857   1.00
C2       0.60512    0.75083    0.25087   1.00
C2       0.39488    0.74917    0.24913   1.00
C3       0.58462    0.78329    0.23590   1.00
C3       0.41519    0.78038    0.23147   1.00
C3       0.58258    0.71983    0.26617   1.00
C3       0.41762    0.71961    0.26676   1.00
H1       0.53115    0.80910    0.22501   1.00
H1       0.46852    0.80490    0.21743   1.00
C5       0.52020    0.68773    0.28074   1.00
C5       0.47980    0.69197    0.28872   1.00
H1       0.59955    0.80675    0.22476   1.00
H1       0.40010    0.80251    0.21806   1.00
H1       0.59680    0.69649    0.27826   1.00
H1       0.40368    0.69582    0.27816   1.00
O3       0.53961    0.65360    0.28942   1.00
O3       0.46099    0.66615    0.31335   1.00
Si1      0.54247    0.61900    0.25678   1.00
Si1      0.45279    0.67918    0.35841   1.00
C6       0.57538    0.58877    0.28241   1.00
C6       0.49598    0.59724    0.25331   1.00
C6       0.56253    0.63480    0.21204   1.00
C6       0.46693    0.72658    0.37309   1.00
C6       0.40198    0.67440    0.36283   1.00
C6       0.47477    0.64393    0.38868   1.00
C6       0.61194    0.60968    0.30028   1.00
H2       0.55791    0.57950    0.30741   1.00
C6       0.59147    0.55017    0.26369   1.00
H2       0.48358    0.60361    0.28193   1.00
C6       0.46634    0.61408    0.22294   1.00
C6       0.49336    0.55188    0.24863   1.00
H2       0.58831    0.65098    0.22158   1.00
C6       0.57772    0.60259    0.18335   1.00
C6       0.53849    0.66323    0.18524   1.00
C6       0.51071    0.73844    0.36808   1.00
C6       0.44225    0.76264    0.35967   1.00
H2       0.46212    0.72559    0.40456   1.00
H2       0.39051    0.69811    0.34494   1.00
C6       0.38378    0.63623    0.34550   1.00
C6       0.38393    0.67972    0.40441   1.00
H2       0.45375    0.61999    0.38919   1.00
C6       0.51336    0.62537    0.37332   1.00
C6       0.48244    0.65487    0.43239   1.00
H2       0.60346    0.63379    0.31933   1.00
H2       0.63090    0.62135    0.27744   1.00
H2       0.62917    0.58960    0.31810   1.00
H2       0.59608    0.52815    0.28632   1.00
H2       0.57178    0.53771    0.24217   1.00
H2       0.61964    0.55449    0.24942   1.00
H2       0.43672    0.60402    0.22929   1.00
H2       0.46532    0.64580    0.22357   1.00
H2       0.47352    0.60466    0.19337   1.00
H2       0.50862    0.53685    0.27220   1.00
H2       0.46308    0.54182    0.24984   1.00
H2       0.50550    0.54247    0.22070   1.00
H2       0.55514    0.58089    0.17742   1.00
H2       0.58708    0.61485    0.15539   1.00
H2       0.60332    0.58794    0.19496   1.00
H2       0.51902    0.64752    0.16553   1.00
H2       0.52068    0.68375    0.20138   1.00
H2       0.55828    0.68049    0.16709   1.00
H2       0.51688    0.74848    0.33856   1.00
H2       0.51809    0.76242    0.38780   1.00
H2       0.53048    0.71451    0.37477   1.00
H2       0.45125    0.78891    0.37543   1.00
H2       0.44574    0.76880    0.32873   1.00
H2       0.41122    0.75886    0.36566   1.00
H2       0.35202    0.63890    0.34360   1.00
H2       0.39435    0.63068    0.31593   1.00
H2       0.39035    0.61070    0.36335   1.00
H2       0.39416    0.70644    0.41838   1.00
H2       0.35212    0.68179    0.40255   1.00
H2       0.39085    0.65504    0.42335   1.00
H2       0.53656    0.64689    0.37006   1.00
H2       0.52381    0.60226    0.39263   1.00
H2       0.50834    0.61216    0.34497   1.00
H2       0.49044    0.62901    0.44931   1.00
H2       0.50622    0.67593    0.43513   1.00
H2       0.45657    0.66720    0.44618   1.00
C4       0.24960    0.47916    0.25302   1.00
C4       0.25019    0.52088    0.25259   1.00
C3       0.26411    0.45636    0.28442   1.00
C3       0.26850    0.54384    0.28182   1.00
C3       0.23425    0.45877    0.22009   1.00
C3       0.23143    0.54114    0.22140   1.00
C2       0.24913    0.39488    0.25083   1.00
C2       0.25087    0.60512    0.24917   1.00
C3       0.26410    0.41538    0.28329   1.00
C3       0.26853    0.58481    0.28038   1.00
C3       0.23383    0.41742    0.21983   1.00
C3       0.23324    0.58238    0.21961   1.00
H1       0.27499    0.46885    0.30910   1.00
H1       0.28257    0.53148    0.30490   1.00
C5       0.21926    0.47980    0.18773   1.00
C5       0.21128    0.52020    0.19197   1.00
H1       0.27524    0.40045    0.30675   1.00
H1       0.28194    0.59990    0.30251   1.00
H1       0.22174    0.40320    0.19649   1.00
H1       0.22184    0.59632    0.19582   1.00
O3       0.21058    0.46039    0.15360   1.00
O3       0.18665    0.53901    0.16615   1.00
Si1      0.24322    0.45753    0.11900   1.00
Si1      0.14159    0.54721    0.17918   1.00
C6       0.21759    0.42462    0.08877   1.00
C6       0.24669    0.50402    0.09724   1.00
C6       0.28796    0.43747    0.13480   1.00
C6       0.12691    0.53307    0.22658   1.00
C6       0.13717    0.59802    0.17440   1.00
C6       0.11132    0.52523    0.14393   1.00
C6       0.19972    0.38806    0.10968   1.00
H2       0.19259    0.44209    0.07950   1.00
C6       0.23631    0.40853    0.05017   1.00
H2       0.21807    0.51642    0.10361   1.00
C6       0.27706    0.53366    0.11408   1.00
C6       0.25137    0.50664    0.05188   1.00
H2       0.27842    0.41169    0.15098   1.00
C6       0.31665    0.42228    0.10259   1.00
C6       0.31476    0.46151    0.16323   1.00
C6       0.13192    0.48929    0.23844   1.00
C6       0.14033    0.55775    0.26264   1.00
H2       0.09544    0.53788    0.22559   1.00
H2       0.15506    0.60949    0.19811   1.00
C6       0.15450    0.61622    0.13623   1.00
C6       0.09559    0.61607    0.17972   1.00
H2       0.11081    0.54625    0.11999   1.00
C6       0.12668    0.48664    0.12537   1.00
C6       0.06761    0.51756    0.15487   1.00
H2       0.18067    0.39654    0.13379   1.00
H2       0.22256    0.36910    0.12135   1.00
H2       0.18190    0.37083    0.08960   1.00
H2       0.21368    0.40392    0.02815   1.00
H2       0.25783    0.42822    0.03771   1.00
H2       0.25058    0.38036    0.05449   1.00
H2       0.27071    0.56328    0.10402   1.00
H2       0.27643    0.53468    0.14580   1.00
H2       0.30663    0.52648    0.10466   1.00
H2       0.22780    0.49138    0.03685   1.00
H2       0.25016    0.53692    0.04182   1.00
H2       0.27930    0.49450    0.04247   1.00
H2       0.32258    0.44486    0.08089   1.00
H2       0.34461    0.41292    0.11485   1.00
H2       0.30504    0.39668    0.08794   1.00
H2       0.33447    0.48098    0.14752   1.00
H2       0.29862    0.47932    0.18375   1.00
H2       0.33291    0.44172    0.18049   1.00
H2       0.16144    0.48312    0.24848   1.00
H2       0.11220    0.48191    0.26242   1.00
H2       0.12523    0.46952    0.21451   1.00
H2       0.12457    0.54875    0.28891   1.00
H2       0.17127    0.55426    0.26880   1.00
H2       0.13434    0.58878    0.25886   1.00
H2       0.15640    0.64798    0.13890   1.00
H2       0.18407    0.60565    0.13068   1.00
H2       0.13665    0.60965    0.11070   1.00
H2       0.08162    0.60584    0.20644   1.00
H2       0.09745    0.64788    0.18179   1.00
H2       0.07665    0.60915    0.15504   1.00
H2       0.12994    0.46344    0.14689   1.00
H2       0.10737    0.47619    0.10226   1.00
H2       0.15503    0.49166    0.11216   1.00
H2       0.05069    0.50956    0.12901   1.00
H2       0.06487    0.49378    0.17593   1.00
H2       0.05382    0.54343    0.16720   1.00
C4       0.25302    0.74960    -0.02084   1.00
C4       0.25259    0.75019    0.02088   1.00
C3       0.28442    0.76411    -0.04364   1.00
C3       0.28182    0.76850    0.04384   1.00
C3       0.22009    0.73425    -0.04123   1.00
C3       0.22140    0.73143    0.04114   1.00
C2       0.25083    0.74913    -0.10512   1.00
C2       0.24917    0.75087    0.10512   1.00
C3       0.28329    0.76410    -0.08462   1.00
C3       0.28038    0.76853    0.08481   1.00
C3       0.21983    0.73383    -0.08258   1.00
C3       0.21961    0.73324    0.08238   1.00
H1       0.30910    0.77499    -0.03115   1.00
H1       0.30490    0.78257    0.03148   1.00
C5       0.18773    0.71926    -0.02020   1.00
C5       0.19197    0.71128    0.02020   1.00
H1       0.30675    0.77524    -0.09955   1.00
H1       0.30251    0.78194    0.09990   1.00
H1       0.19649    0.72174    -0.09680   1.00
H1       0.19582    0.72184    0.09632   1.00
O3       0.15360    0.71058    -0.03961   1.00
O3       0.16615    0.68665    0.03901   1.00
Si1      0.11900    0.74322    -0.04247   1.00
Si1      0.17918    0.64159    0.04721   1.00
C6       0.08877    0.71759    -0.07538   1.00
C6       0.09724    0.74669    0.00402   1.00
C6       0.13480    0.78796    -0.06253   1.00
C6       0.22658    0.62691    0.03307   1.00
C6       0.17440    0.63717    0.09802   1.00
C6       0.14393    0.61132    0.02523   1.00
C6       0.10968    0.69972    -0.11194   1.00
H2       0.07950    0.69259    -0.05791   1.00
C6       0.05017    0.73631    -0.09147   1.00
H2       0.10361    0.71807    0.01642   1.00
C6       0.11408    0.77706    0.03366   1.00
C6       0.05188    0.75137    0.00664   1.00
H2       0.15098    0.77842    -0.08831   1.00
C6       0.10259    0.81665    -0.07772   1.00
C6       0.16323    0.81476    -0.03849   1.00
C6       0.23844    0.63192    -0.01071   1.00
C6       0.26264    0.64033    0.05775   1.00
H2       0.22559    0.59544    0.03788   1.00
H2       0.19811    0.65506    0.10949   1.00
C6       0.13623    0.65450    0.11622   1.00
C6       0.17972    0.59559    0.11607   1.00
H2       0.11999    0.61081    0.04625   1.00
C6       0.12537    0.62668    -0.01336   1.00
C6       0.15487    0.56761    0.01756   1.00
H2       0.13379    0.68067    -0.10346   1.00
H2       0.12135    0.72256    -0.13090   1.00
H2       0.08960    0.68190    -0.12917   1.00
H2       0.02815    0.71368    -0.09608   1.00
H2       0.03771    0.75783    -0.07178   1.00
H2       0.05449    0.75058    -0.11964   1.00
H2       0.10402    0.77071    0.06328   1.00
H2       0.14580    0.77643    0.03468   1.00
H2       0.10466    0.80663    0.02648   1.00
H2       0.03685    0.72780    -0.00862   1.00
H2       0.04182    0.75016    0.03692   1.00
H2       0.04247    0.77930    -0.00550   1.00
H2       0.08089    0.82258    -0.05514   1.00
H2       0.11485    0.84461    -0.08708   1.00
H2       0.08794    0.80504    -0.10332   1.00
H2       0.14752    0.83447    -0.01902   1.00
H2       0.18375    0.79862    -0.02068   1.00
H2       0.18049    0.83291    -0.05828   1.00
H2       0.24848    0.66144    -0.01688   1.00
H2       0.26242    0.61220    -0.01809   1.00
H2       0.21451    0.62523    -0.03048   1.00
H2       0.28891    0.62457    0.04875   1.00
H2       0.26880    0.67127    0.05426   1.00
H2       0.25886    0.63434    0.08878   1.00
H2       0.13890    0.65640    0.14798   1.00
H2       0.13068    0.68407    0.10565   1.00
H2       0.11070    0.63665    0.10965   1.00
H2       0.20644    0.58162    0.10584   1.00
H2       0.18179    0.59745    0.14788   1.00
H2       0.15504    0.57665    0.10915   1.00
H2       0.14689    0.62994    -0.03656   1.00
H2       0.10226    0.60737    -0.02381   1.00
H2       0.11216    0.65503    -0.00834   1.00
H2       0.12901    0.55069    0.00956   1.00
H2       0.17593    0.56487    -0.00622   1.00
H2       0.16720    0.55382    0.04343   1.00
C4       0.75302    0.25040    0.52084   1.00
C4       0.75259    0.24981    0.47912   1.00
C3       0.78442    0.23589    0.54364   1.00
C3       0.78182    0.23150    0.45616   1.00
C3       0.72009    0.26575    0.54123   1.00
C3       0.72140    0.26857    0.45886   1.00
C2       0.75083    0.25087    0.60512   1.00
C2       0.74917    0.24913    0.39488   1.00
C3       0.78329    0.23590    0.58462   1.00
C3       0.78038    0.23147    0.41519   1.00
C3       0.71983    0.26617    0.58258   1.00
C3       0.71961    0.26676    0.41762   1.00
H1       0.80910    0.22501    0.53115   1.00
H1       0.80490    0.21743    0.46852   1.00
C5       0.68773    0.28074    0.52020   1.00
C5       0.69197    0.28872    0.47980   1.00
H1       0.80675    0.22476    0.59955   1.00
H1       0.80251    0.21806    0.40010   1.00
H1       0.69649    0.27826    0.59680   1.00
H1       0.69582    0.27816    0.40368   1.00
O3       0.65360    0.28942    0.53961   1.00
O3       0.66615    0.31335    0.46099   1.00
Si1      0.61900    0.25678    0.54247   1.00
Si1      0.67918    0.35841    0.45279   1.00
C6       0.58877    0.28241    0.57538   1.00
C6       0.59724    0.25331    0.49598   1.00
C6       0.63480    0.21204    0.56253   1.00
C6       0.72658    0.37309    0.46693   1.00
C6       0.67440    0.36283    0.40198   1.00
C6       0.64393    0.38868    0.47477   1.00
C6       0.60968    0.30028    0.61194   1.00
H2       0.57950    0.30741    0.55791   1.00
C6       0.55017    0.26369    0.59147   1.00
H2       0.60361    0.28193    0.48358   1.00
C6       0.61408    0.22294    0.46634   1.00
C6       0.55188    0.24863    0.49336   1.00
H2       0.65098    0.22158    0.58831   1.00
C6       0.60259    0.18335    0.57772   1.00
C6       0.66323    0.18524    0.53849   1.00
C6       0.73844    0.36808    0.51071   1.00
C6       0.76264    0.35967    0.44225   1.00
H2       0.72559    0.40456    0.46212   1.00
H2       0.69811    0.34494    0.39051   1.00
C6       0.63623    0.34550    0.38378   1.00
C6       0.67972    0.40441    0.38393   1.00
H2       0.61999    0.38919    0.45375   1.00
C6       0.62537    0.37332    0.51336   1.00
C6       0.65487    0.43239    0.48244   1.00
H2       0.63379    0.31933    0.60346   1.00
H2       0.62135    0.27744    0.63090   1.00
H2       0.58960    0.31810    0.62917   1.00
H2       0.52815    0.28632    0.59608   1.00
H2       0.53771    0.24217    0.57178   1.00
H2       0.55449    0.24942    0.61964   1.00
H2       0.60402    0.22929    0.43672   1.00
H2       0.64580    0.22357    0.46532   1.00
H2       0.60466    0.19337    0.47352   1.00
H2       0.53685    0.27220    0.50862   1.00
H2       0.54182    0.24984    0.46308   1.00
H2       0.54247    0.22070    0.50550   1.00
H2       0.58089    0.17742    0.55514   1.00
H2       0.61485    0.15539    0.58708   1.00
H2       0.58794    0.19496    0.60332   1.00
H2       0.64752    0.16553    0.51902   1.00
H2       0.68375    0.20138    0.52068   1.00
H2       0.68049    0.16709    0.55828   1.00
H2       0.74848    0.33856    0.51688   1.00
H2       0.76242    0.38780    0.51809   1.00
H2       0.71451    0.37477    0.53048   1.00
H2       0.78891    0.37543    0.45125   1.00
H2       0.76880    0.32873    0.44574   1.00
H2       0.75886    0.36566    0.41122   1.00
H2       0.63890    0.34360    0.35202   1.00
H2       0.63068    0.31593    0.39435   1.00
H2       0.61070    0.36335    0.39035   1.00
H2       0.70644    0.41838    0.39416   1.00
H2       0.68179    0.40255    0.35212   1.00
H2       0.65504    0.42335    0.39085   1.00
H2       0.64689    0.37006    0.53656   1.00
H2       0.60226    0.39263    0.52381   1.00
H2       0.61216    0.34497    0.50834   1.00
H2       0.62901    0.44931    0.49044   1.00
H2       0.67593    0.43513    0.50622   1.00
H2       0.66720    0.44618    0.45657   1.00
C4       0.75040    0.52084    0.25302   1.00
C4       0.74981    0.47912    0.25259   1.00
C3       0.73589    0.54364    0.28442   1.00
C3       0.73150    0.45616    0.28182   1.00
C3       0.76575    0.54123    0.22009   1.00
C3       0.76857    0.45886    0.22140   1.00
C2       0.75087    0.60512    0.25083   1.00
C2       0.74913    0.39488    0.24917   1.00
C3       0.73590    0.58462    0.28329   1.00
C3       0.73147    0.41519    0.28038   1.00
C3       0.76617    0.58258    0.21983   1.00
C3       0.76676    0.41762    0.21961   1.00
H1       0.72501    0.53115    0.30910   1.00
H1       0.71743    0.46852    0.30490   1.00
C5       0.78074    0.52020    0.18773   1.00
C5       0.78872    0.47980    0.19197   1.00
H1       0.72476    0.59955    0.30675   1.00
H1       0.71806    0.40010    0.30251   1.00
H1       0.77826    0.59680    0.19649   1.00
H1       0.77816    0.40368    0.19582   1.00
O3       0.78942    0.53961    0.15360   1.00
O3       0.81335    0.46099    0.16615   1.00
Si1      0.75678    0.54247    0.11900   1.00
Si1      0.85841    0.45279    0.17918   1.00
C6       0.78241    0.57538    0.08877   1.00
C6       0.75331    0.49598    0.09724   1.00
C6       0.71204    0.56253    0.13480   1.00
C6       0.87309    0.46693    0.22658   1.00
C6       0.86283    0.40198    0.17440   1.00
C6       0.88868    0.47477    0.14393   1.00
C6       0.80028    0.61194    0.10968   1.00
H2       0.80741    0.55791    0.07950   1.00
C6       0.76369    0.59147    0.05017   1.00
H2       0.78193    0.48358    0.10361   1.00
C6       0.72294    0.46634    0.11408   1.00
C6       0.74863    0.49336    0.05188   1.00
H2       0.72158    0.58831    0.15098   1.00
C6       0.68335    0.57772    0.10259   1.00
C6       0.68524    0.53849    0.16323   1.00
C6       0.86808    0.51071    0.23844   1.00
C6       0.85967    0.44225    0.26264   1.00
H2       0.90456    0.46212    0.22559   1.00
H2       0.84494    0.39051    0.19811   1.00
C6       0.84550    0.38378    0.13623   1.00
C6       0.90441    0.38393    0.17972   1.00
H2       0.88919    0.45375    0.11999   1.00
C6       0.87332    0.51336    0.12537   1.00
C6       0.93239    0.48244    0.15487   1.00
H2       0.81933    0.60346    0.13379   1.00
H2       0.77744    0.63090    0.12135   1.00
H2       0.81810    0.62917    0.08960   1.00
H2       0.78632    0.59608    0.02815   1.00
H2       0.74217    0.57178    0.03771   1.00
H2       0.74942    0.61964    0.05449   1.00
H2       0.72929    0.43672    0.10402   1.00
H2       0.72357    0.46532    0.14580   1.00
H2       0.69337    0.47352    0.10466   1.00
H2       0.77220    0.50862    0.03685   1.00
H2       0.74984    0.46308    0.04182   1.00
H2       0.72070    0.50550    0.04247   1.00
H2       0.67742    0.55514    0.08089   1.00
H2       0.65539    0.58708    0.11485   1.00
H2       0.69496    0.60332    0.08794   1.00
H2       0.66553    0.51902    0.14752   1.00
H2       0.70138    0.52068    0.18375   1.00
H2       0.66709    0.55828    0.18049   1.00
H2       0.83856    0.51688    0.24848   1.00
H2       0.88780    0.51809    0.26242   1.00
H2       0.87477    0.53048    0.21451   1.00
H2       0.87543    0.45125    0.28891   1.00
H2       0.82873    0.44574    0.26880   1.00
H2       0.86566    0.41122    0.25886   1.00
H2       0.84360    0.35202    0.13890   1.00
H2       0.81593    0.39435    0.13068   1.00
H2       0.86335    0.39035    0.11070   1.00
H2       0.91838    0.39416    0.20644   1.00
H2       0.90255    0.35212    0.18179   1.00
H2       0.92335    0.39085    0.15504   1.00
H2       0.87006    0.53656    0.14689   1.00
H2       0.89263    0.52381    0.10226   1.00
H2       0.84497    0.50834    0.11216   1.00
H2       0.94931    0.49044    0.12901   1.00
H2       0.93513    0.50622    0.17593   1.00
H2       0.94618    0.45657    0.16720   1.00
C4       0.47916    0.25302    0.24960   1.00
C4       0.52088    0.25259    0.25019   1.00
C3       0.45636    0.28442    0.26411   1.00
C3       0.54384    0.28182    0.26850   1.00
C3       0.45877    0.22009    0.23425   1.00
C3       0.54114    0.22140    0.23143   1.00
C2       0.39488    0.25083    0.24913   1.00
C2       0.60512    0.24917    0.25087   1.00
C3       0.41538    0.28329    0.26410   1.00
C3       0.58481    0.28038    0.26853   1.00
C3       0.41742    0.21983    0.23383   1.00
C3       0.58238    0.21961    0.23324   1.00
H1       0.46885    0.30910    0.27499   1.00
H1       0.53148    0.30490    0.28257   1.00
C5       0.47980    0.18773    0.21926   1.00
C5       0.52020    0.19197    0.21128   1.00
H1       0.40045    0.30675    0.27524   1.00
H1       0.59990    0.30251    0.28194   1.00
H1       0.40320    0.19649    0.22174   1.00
H1       0.59632    0.19582    0.22184   1.00
O3       0.46039    0.15360    0.21058   1.00
O3       0.53901    0.16615    0.18665   1.00
Si1      0.45753    0.11900    0.24322   1.00
Si1      0.54721    0.17918    0.14159   1.00
C6       0.42462    0.08877    0.21759   1.00
C6       0.50402    0.09724    0.24669   1.00
C6       0.43747    0.13480    0.28796   1.00
C6       0.53307    0.22658    0.12691   1.00
C6       0.59802    0.17440    0.13717   1.00
C6       0.52523    0.14393    0.11132   1.00
C6       0.38806    0.10968    0.19972   1.00
H2       0.44209    0.07950    0.19259   1.00
C6       0.40853    0.05017    0.23631   1.00
H2       0.51642    0.10361    0.21807   1.00
C6       0.53366    0.11408    0.27706   1.00
C6       0.50664    0.05188    0.25137   1.00
H2       0.41169    0.15098    0.27842   1.00
C6       0.42228    0.10259    0.31665   1.00
C6       0.46151    0.16323    0.31476   1.00
C6       0.48929    0.23844    0.13192   1.00
C6       0.55775    0.26264    0.14033   1.00
H2       0.53788    0.22559    0.09544   1.00
H2       0.60949    0.19811    0.15506   1.00
C6       0.61622    0.13623    0.15450   1.00
C6       0.61607    0.17972    0.09559   1.00
H2       0.54625    0.11999    0.11081   1.00
C6       0.48664    0.12537    0.12668   1.00
C6       0.51756    0.15487    0.06761   1.00
H2       0.39654    0.13379    0.18067   1.00
H2       0.36910    0.12135    0.22256   1.00
H2       0.37083    0.08960    0.18190   1.00
H2       0.40392    0.02815    0.21368   1.00
H2       0.42822    0.03771    0.25783   1.00
H2       0.38036    0.05449    0.25058   1.00
H2       0.56328    0.10402    0.27071   1.00
H2       0.53468    0.14580    0.27643   1.00
H2       0.52648    0.10466    0.30663   1.00
H2       0.49138    0.03685    0.22780   1.00
H2       0.53692    0.04182    0.25016   1.00
H2       0.49450    0.04247    0.27930   1.00
H2       0.44486    0.08089    0.32258   1.00
H2       0.41292    0.11485    0.34461   1.00
H2       0.39668    0.08794    0.30504   1.00
H2       0.48098    0.14752    0.33447   1.00
H2       0.47932    0.18375    0.29862   1.00
H2       0.44172    0.18049    0.33291   1.00
H2       0.48312    0.24848    0.16144   1.00
H2       0.48191    0.26242    0.11220   1.00
H2       0.46952    0.21451    0.12523   1.00
H2       0.54875    0.28891    0.12457   1.00
H2       0.55426    0.26880    0.17127   1.00
H2       0.58878    0.25886    0.13434   1.00
H2       0.64798    0.13890    0.15640   1.00
H2       0.60565    0.13068    0.18407   1.00
H2       0.60965    0.11070    0.13665   1.00
H2       0.60584    0.20644    0.08162   1.00
H2       0.64788    0.18179    0.09745   1.00
H2       0.60915    0.15504    0.07665   1.00
H2       0.46344    0.14689    0.12994   1.00
H2       0.47619    0.10226    0.10737   1.00
H2       0.49166    0.11216    0.15503   1.00
H2       0.50956    0.12901    0.05069   1.00
H2       0.49378    0.17593    0.06487   1.00
H2       0.54343    0.16720    0.05382   1.00
C4       1.02084    0.25302    0.25040   1.00
C4       0.97912    0.25259    0.24981   1.00
C3       1.04364    0.28442    0.23589   1.00
C3       0.95616    0.28182    0.23150   1.00
C3       1.04123    0.22009    0.26575   1.00
C3       0.95886    0.22140    0.26857   1.00
C2       1.10512    0.25083    0.25087   1.00
C2       0.89488    0.24917    0.24913   1.00
C3       1.08462    0.28329    0.23590   1.00
C3       0.91519    0.28038    0.23147   1.00
C3       1.08258    0.21983    0.26617   1.00
C3       0.91762    0.21961    0.26676   1.00
H1       1.03115    0.30910    0.22501   1.00
H1       0.96852    0.30490    0.21743   1.00
C5       1.02020    0.18773    0.28074   1.00
C5       0.97980    0.19197    0.28872   1.00
H1       1.09955    0.30675    0.22476   1.00
H1       0.90010    0.30251    0.21806   1.00
H1       1.09680    0.19649    0.27826   1.00
H1       0.90368    0.19582    0.27816   1.00
O3       1.03961    0.15360    0.28942   1.00
O3       0.96099    0.16615    0.31335   1.00
Si1      1.04247    0.11900    0.25678   1.00
Si1      0.95279    0.17918    0.35841   1.00
C6       1.07538    0.08877    0.28241   1.00
C6       0.99598    0.09724    0.25331   1.00
C6       1.06253    0.13480    0.21204   1.00
C6       0.96693    0.22658    0.37309   1.00
C6       0.90198    0.17440    0.36283   1.00
C6       0.97477    0.14393    0.38868   1.00
C6       1.11194    0.10968    0.30028   1.00
H2       1.05791    0.07950    0.30741   1.00
C6       1.09147    0.05017    0.26369   1.00
H2       0.98358    0.10361    0.28193   1.00
C6       0.96634    0.11408    0.22294   1.00
C6       0.99336    0.05188    0.24863   1.00
H2       1.08831    0.15098    0.22158   1.00
C6       1.07772    0.10259    0.18335   1.00
C6       1.03849    0.16323    0.18524   1.00
C6       1.01071    0.23844    0.36808   1.00
C6       0.94225    0.26264    0.35967   1.00
H2       0.96212    0.22559    0.40456   1.00
H2       0.89051    0.19811    0.34494   1.00
C6       0.88378    0.13623    0.34550   1.00
C6       0.88393    0.17972    0.40441   1.00
H2       0.95375    0.11999    0.38919   1.00
C6       1.01336    0.12537    0.37332   1.00
C6       0.98244    0.15487    0.43239   1.00
H2       1.10346    0.13379    0.31933   1.00
H2       1.13090    0.12135    0.27744   1.00
H2       1.12917    0.08960    0.31810   1.00
H2       1.09608    0.02815    0.28632   1.00
H2       1.07178    0.03771    0.24217   1.00
H2       1.11964    0.05449    0.24942   1.00
H2       0.93672    0.10402    0.22929   1.00
H2       0.96532    0.14580    0.22357   1.00
H2       0.97352    0.10466    0.19337   1.00
H2       1.00862    0.03685    0.27220   1.00
H2       0.96308    0.04182    0.24984   1.00
H2       1.00550    0.04247    0.22070   1.00
H2       1.05514    0.08089    0.17742   1.00
H2       1.08708    0.11485    0.15539   1.00
H2       1.10332    0.08794    0.19496   1.00
H2       1.01902    0.14752    0.16553   1.00
H2       1.02068    0.18375    0.20138   1.00
H2       1.05828    0.18049    0.16709   1.00
H2       1.01688    0.24848    0.33856   1.00
H2       1.01809    0.26242    0.38780   1.00
H2       1.03048    0.21451    0.37477   1.00
H2       0.95125    0.28891    0.37543   1.00
H2       0.94574    0.26880    0.32873   1.00
H2       0.91122    0.25886    0.36566   1.00
H2       0.85202    0.13890    0.34360   1.00
H2       0.89435    0.13068    0.31593   1.00
H2       0.89035    0.11070    0.36335   1.00
H2       0.89416    0.20644    0.41838   1.00
H2       0.85212    0.18179    0.40255   1.00
H2       0.89085    0.15504    0.42335   1.00
H2       1.03656    0.14689    0.37006   1.00
H2       1.02381    0.10226    0.39263   1.00
H2       1.00834    0.11216    0.34497   1.00
H2       0.99044    0.12901    0.44931   1.00
H2       1.00622    0.17593    0.43513   1.00
H2       0.95657    0.16720    0.44618   1.00
C4       0.74960    -0.02084   0.25302   1.00
C4       0.75019    0.02088    0.25259   1.00
C3       0.76411    -0.04364   0.28442   1.00
C3       0.76850    0.04384    0.28182   1.00
C3       0.73425    -0.04123   0.22009   1.00
C3       0.73143    0.04114    0.22140   1.00
C2       0.74913    -0.10512   0.25083   1.00
C2       0.75087    0.10512    0.24917   1.00
C3       0.76410    -0.08462   0.28329   1.00
C3       0.76853    0.08481    0.28038   1.00
C3       0.73383    -0.08258   0.21983   1.00
C3       0.73324    0.08238    0.21961   1.00
H1       0.77499    -0.03115   0.30910   1.00
H1       0.78257    0.03148    0.30490   1.00
C5       0.71926    -0.02020   0.18773   1.00
C5       0.71128    0.02020    0.19197   1.00
H1       0.77524    -0.09955   0.30675   1.00
H1       0.78194    0.09990    0.30251   1.00
H1       0.72174    -0.09680   0.19649   1.00
H1       0.72184    0.09632    0.19582   1.00
O3       0.71058    -0.03961   0.15360   1.00
O3       0.68665    0.03901    0.16615   1.00
Si1      0.74322    -0.04247   0.11900   1.00
Si1      0.64159    0.04721    0.17918   1.00
C6       0.71759    -0.07538   0.08877   1.00
C6       0.74669    0.00402    0.09724   1.00
C6       0.78796    -0.06253   0.13480   1.00
C6       0.62691    0.03307    0.22658   1.00
C6       0.63717    0.09802    0.17440   1.00
C6       0.61132    0.02523    0.14393   1.00
C6       0.69972    -0.11194   0.10968   1.00
H2       0.69259    -0.05791   0.07950   1.00
C6       0.73631    -0.09147   0.05017   1.00
H2       0.71807    0.01642    0.10361   1.00
C6       0.77706    0.03366    0.11408   1.00
C6       0.75137    0.00664    0.05188   1.00
H2       0.77842    -0.08831   0.15098   1.00
C6       0.81665    -0.07772   0.10259   1.00
C6       0.81476    -0.03849   0.16323   1.00
C6       0.63192    -0.01071   0.23844   1.00
C6       0.64033    0.05775    0.26264   1.00
H2       0.59544    0.03788    0.22559   1.00
H2       0.65506    0.10949    0.19811   1.00
C6       0.65450    0.11622    0.13623   1.00
C6       0.59559    0.11607    0.17972   1.00
H2       0.61081    0.04625    0.11999   1.00
C6       0.62668    -0.01336   0.12537   1.00
C6       0.56761    0.01756    0.15487   1.00
H2       0.68067    -0.10346   0.13379   1.00
H2       0.72256    -0.13090   0.12135   1.00
H2       0.68190    -0.12917   0.08960   1.00
H2       0.71368    -0.09608   0.02815   1.00
H2       0.75783    -0.07178   0.03771   1.00
H2       0.75058    -0.11964   0.05449   1.00
H2       0.77071    0.06328    0.10402   1.00
H2       0.77643    0.03468    0.14580   1.00
H2       0.80663    0.02648    0.10466   1.00
H2       0.72780    -0.00862   0.03685   1.00
H2       0.75016    0.03692    0.04182   1.00
H2       0.77930    -0.00550   0.04247   1.00
H2       0.82258    -0.05514   0.08089   1.00
H2       0.84461    -0.08708   0.11485   1.00
H2       0.80504    -0.10332   0.08794   1.00
H2       0.83447    -0.01902   0.14752   1.00
H2       0.79862    -0.02068   0.18375   1.00
H2       0.83291    -0.05828   0.18049   1.00
H2       0.66144    -0.01688   0.24848   1.00
H2       0.61220    -0.01809   0.26242   1.00
H2       0.62523    -0.03048   0.21451   1.00
H2       0.62457    0.04875    0.28891   1.00
H2       0.67127    0.05426    0.26880   1.00
H2       0.63434    0.08878    0.25886   1.00
H2       0.65640    0.14798    0.13890   1.00
H2       0.68407    0.10565    0.13068   1.00
H2       0.63665    0.10965    0.11070   1.00
H2       0.58162    0.10584    0.20644   1.00
H2       0.59745    0.14788    0.18179   1.00
H2       0.57665    0.10915    0.15504   1.00
H2       0.62994    -0.03656   0.14689   1.00
H2       0.60737    -0.02381   0.10226   1.00
H2       0.65503    -0.00834   0.11216   1.00
H2       0.55069    0.00956    0.12901   1.00
H2       0.56487    -0.00622   0.17593   1.00
H2       0.55382    0.04343    0.16720   1.00
C4       0.75302    0.24960    -0.02084   1.00
C4       0.75259    0.25019    0.02088   1.00
C3       0.78442    0.26411    -0.04364   1.00
C3       0.78182    0.26850    0.04384   1.00
C3       0.72009    0.23425    -0.04123   1.00
C3       0.72140    0.23143    0.04114   1.00
C2       0.75083    0.24913    -0.10512   1.00
C2       0.74917    0.25087    0.10512   1.00
C3       0.78329    0.26410    -0.08462   1.00
C3       0.78038    0.26853    0.08481   1.00
C3       0.71983    0.23383    -0.08258   1.00
C3       0.71961    0.23324    0.08238   1.00
H1       0.80910    0.27499    -0.03115   1.00
H1       0.80490    0.28257    0.03148   1.00
C5       0.68773    0.21926    -0.02020   1.00
C5       0.69197    0.21128    0.02020   1.00
H1       0.80675    0.27524    -0.09955   1.00
H1       0.80251    0.28194    0.09990   1.00
H1       0.69649    0.22174    -0.09680   1.00
H1       0.69582    0.22184    0.09632   1.00
O3       0.65360    0.21058    -0.03961   1.00
O3       0.66615    0.18665    0.03901   1.00
Si1      0.61900    0.24322    -0.04247   1.00
Si1      0.67918    0.14159    0.04721   1.00
C6       0.58877    0.21759    -0.07538   1.00
C6       0.59724    0.24669    0.00402   1.00
C6       0.63480    0.28796    -0.06253   1.00
C6       0.72658    0.12691    0.03307   1.00
C6       0.67440    0.13717    0.09802   1.00
C6       0.64393    0.11132    0.02523   1.00
C6       0.60968    0.19972    -0.11194   1.00
H2       0.57950    0.19259    -0.05791   1.00
C6       0.55017    0.23631    -0.09147   1.00
H2       0.60361    0.21807    0.01642   1.00
C6       0.61408    0.27706    0.03366   1.00
C6       0.55188    0.25137    0.00664   1.00
H2       0.65098    0.27842    -0.08831   1.00
C6       0.60259    0.31665    -0.07772   1.00
C6       0.66323    0.31476    -0.03849   1.00
C6       0.73844    0.13192    -0.01071   1.00
C6       0.76264    0.14033    0.05775   1.00
H2       0.72559    0.09544    0.03788   1.00
H2       0.69811    0.15506    0.10949   1.00
C6       0.63623    0.15450    0.11622   1.00
C6       0.67972    0.09559    0.11607   1.00
H2       0.61999    0.11081    0.04625   1.00
C6       0.62537    0.12668    -0.01336   1.00
C6       0.65487    0.06761    0.01756   1.00
H2       0.63379    0.18067    -0.10346   1.00
H2       0.62135    0.22256    -0.13090   1.00
H2       0.58960    0.18190    -0.12917   1.00
H2       0.52815    0.21368    -0.09608   1.00
H2       0.53771    0.25783    -0.07178   1.00
H2       0.55449    0.25058    -0.11964   1.00
H2       0.60402    0.27071    0.06328   1.00
H2       0.64580    0.27643    0.03468   1.00
H2       0.60466    0.30663    0.02648   1.00
H2       0.53685    0.22780    -0.00862   1.00
H2       0.54182    0.25016    0.03692   1.00
H2       0.54247    0.27930    -0.00550   1.00
H2       0.58089    0.32258    -0.05514   1.00
H2       0.61485    0.34461    -0.08708   1.00
H2       0.58794    0.30504    -0.10332   1.00
H2       0.64752    0.33447    -0.01902   1.00
H2       0.68375    0.29862    -0.02068   1.00
H2       0.68049    0.33291    -0.05828   1.00
H2       0.74848    0.16144    -0.01688   1.00
H2       0.76242    0.11220    -0.01809   1.00
H2       0.71451    0.12523    -0.03048   1.00
H2       0.78891    0.12457    0.04875   1.00
H2       0.76880    0.17127    0.05426   1.00
H2       0.75886    0.13434    0.08878   1.00
H2       0.63890    0.15640    0.14798   1.00
H2       0.63068    0.18407    0.10565   1.00
H2       0.61070    0.13665    0.10965   1.00
H2       0.70644    0.08162    0.10584   1.00
H2       0.68179    0.09745    0.14788   1.00
H2       0.65504    0.07665    0.10915   1.00
H2       0.64689    0.12994    -0.03656   1.00
H2       0.60226    0.10737    -0.02381   1.00
H2       0.61216    0.15503    -0.00834   1.00
H2       0.62901    0.05069    0.00956   1.00
H2       0.67593    0.06487    -0.00622   1.00
H2       0.66720    0.05382    0.04343   1.00
C4       0.91802    0.91540    1.18584   1.00
C4       0.91759    0.91481    1.14412   1.00
C3       0.94942    0.90089    1.20864   1.00
C3       0.94682    0.89650    1.12116   1.00
C3       0.88509    0.93075    1.20623   1.00
C3       0.88640    0.93357    1.12386   1.00
C2       0.91583    0.91587    1.27012   1.00
C2       0.91417    0.91413    1.05988   1.00
C3       0.94829    0.90090    1.24962   1.00
C3       0.94538    0.89647    1.08019   1.00
C3       0.88483    0.93117    1.24758   1.00
C3       0.88461    0.93176    1.08262   1.00
H1       0.97410    0.89001    1.19615   1.00
H1       0.96990    0.88243    1.13352   1.00
C5       0.85273    0.94574    1.18520   1.00
C5       0.85697    0.95372    1.14480   1.00
H1       0.97175    0.88976    1.26455   1.00
H1       0.96751    0.88306    1.06510   1.00
H1       0.86149    0.94326    1.26180   1.00
H1       0.86082    0.94316    1.06868   1.00
O3       0.81860    0.95442    1.20461   1.00
O3       0.83115    0.97835    1.12599   1.00
Si1      0.78400    0.92178    1.20747   1.00
Si1      0.84418    1.02341    1.11779   1.00
C6       0.75377    0.94741    1.24038   1.00
C6       0.76224    0.91831    1.16098   1.00
C6       0.79980    0.87704    1.22753   1.00
C6       0.89158    1.03809    1.13193   1.00
C6       0.83940    1.02783    1.06698   1.00
C6       0.80893    1.05368    1.13977   1.00
C6       0.77468    0.96528    1.27694   1.00
H2       0.74450    0.97241    1.22291   1.00
C6       0.71517    0.92869    1.25647   1.00
H2       0.76861    0.94693    1.14858   1.00
C6       0.77908    0.88794    1.13134   1.00
C6       0.71688    0.91363    1.15836   1.00
H2       0.81598    0.88658    1.25331   1.00
C6       0.76759    0.84835    1.24272   1.00
C6       0.82823    0.85024    1.20349   1.00
C6       0.90344    1.03308    1.17571   1.00
C6       0.92764    1.02467    1.10725   1.00
H2       0.89059    1.06956    1.12712   1.00
H2       0.86311    1.00994    1.05551   1.00
C6       0.80123    1.01050    1.04878   1.00
C6       0.84472    1.06941    1.04893   1.00
H2       0.78499    1.05419    1.11875   1.00
C6       0.79037    1.03832    1.17836   1.00
C6       0.81987    1.09739    1.14744   1.00
H2       0.79879    0.98433    1.26846   1.00
H2       0.78635    0.94244    1.29590   1.00
H2       0.75460    0.98310    1.29417   1.00
H2       0.69315    0.95132    1.26108   1.00
H2       0.70271    0.90717    1.23678   1.00
H2       0.71949    0.91442    1.28464   1.00
H2       0.76902    0.89429    1.10172   1.00
H2       0.81080    0.88857    1.13032   1.00
H2       0.76966    0.85837    1.13852   1.00
H2       0.70185    0.93720    1.17362   1.00
H2       0.70682    0.91484    1.12808   1.00
H2       0.70747    0.88570    1.17050   1.00
H2       0.74589    0.84242    1.22014   1.00
H2       0.77985    0.82039    1.25208   1.00
H2       0.75294    0.85996    1.26832   1.00
H2       0.81252    0.83053    1.18402   1.00
H2       0.84875    0.86638    1.18568   1.00
H2       0.84549    0.83209    1.22328   1.00
H2       0.91348    1.00356    1.18188   1.00
H2       0.92742    1.05280    1.18309   1.00
H2       0.87951    1.03977    1.19548   1.00
H2       0.95391    1.04043    1.11625   1.00
H2       0.93380    0.99373    1.11074   1.00
H2       0.92386    1.03066    1.07622   1.00
H2       0.80390    1.00860    1.01702   1.00
H2       0.79568    0.98093    1.05935   1.00
H2       0.77570    1.02835    1.05535   1.00
H2       0.87144    1.08338    1.05916   1.00
H2       0.84679    1.06755    1.01712   1.00
H2       0.82004    1.08835    1.05585   1.00
H2       0.81189    1.03506    1.20156   1.00
H2       0.76726    1.05763    1.18881   1.00
H2       0.77716    1.00997    1.17334   1.00
H2       0.79401    1.11431    1.15544   1.00
H2       0.84093    1.10013    1.17122   1.00
H2       0.83220    1.11118    1.12157   1.00
C4       0.91540    1.18584    0.91802   1.00
C4       0.91481    1.14412    0.91759   1.00
C3       0.90089    1.20864    0.94942   1.00
C3       0.89650    1.12116    0.94682   1.00
C3       0.93075    1.20623    0.88509   1.00
C3       0.93357    1.12386    0.88640   1.00
C2       0.91587    1.27012    0.91583   1.00
C2       0.91413    1.05988    0.91417   1.00
C3       0.90090    1.24962    0.94829   1.00
C3       0.89647    1.08019    0.94538   1.00
C3       0.93117    1.24758    0.88483   1.00
C3       0.93176    1.08262    0.88461   1.00
H1       0.89001    1.19615    0.97410   1.00
H1       0.88243    1.13352    0.96990   1.00
C5       0.94574    1.18520    0.85273   1.00
C5       0.95372    1.14480    0.85697   1.00
H1       0.88976    1.26455    0.97175   1.00
H1       0.88306    1.06510    0.96751   1.00
H1       0.94326    1.26180    0.86149   1.00
H1       0.94316    1.06868    0.86082   1.00
O3       0.95442    1.20461    0.81860   1.00
O3       0.97835    1.12599    0.83115   1.00
Si1      0.92178    1.20747    0.78400   1.00
Si1      1.02341    1.11779    0.84418   1.00
C6       0.94741    1.24038    0.75377   1.00
C6       0.91831    1.16098    0.76224   1.00
C6       0.87704    1.22753    0.79980   1.00
C6       1.03809    1.13193    0.89158   1.00
C6       1.02783    1.06698    0.83940   1.00
C6       1.05368    1.13977    0.80893   1.00
C6       0.96528    1.27694    0.77468   1.00
H2       0.97241    1.22291    0.74450   1.00
C6       0.92869    1.25647    0.71517   1.00
H2       0.94693    1.14858    0.76861   1.00
C6       0.88794    1.13134    0.77908   1.00
C6       0.91363    1.15836    0.71688   1.00
H2       0.88658    1.25331    0.81598   1.00
C6       0.84835    1.24272    0.76759   1.00
C6       0.85024    1.20349    0.82823   1.00
C6       1.03308    1.17571    0.90344   1.00
C6       1.02467    1.10725    0.92764   1.00
H2       1.06956    1.12712    0.89059   1.00
H2       1.00994    1.05551    0.86311   1.00
C6       1.01050    1.04878    0.80123   1.00
C6       1.06941    1.04893    0.84472   1.00
H2       1.05419    1.11875    0.78499   1.00
C6       1.03832    1.17836    0.79037   1.00
C6       1.09739    1.14744    0.81987   1.00
H2       0.98433    1.26846    0.79879   1.00
H2       0.94244    1.29590    0.78635   1.00
H2       0.98310    1.29417    0.75460   1.00
H2       0.95132    1.26108    0.69315   1.00
H2       0.90717    1.23678    0.70271   1.00
H2       0.91442    1.28464    0.71949   1.00
H2       0.89429    1.10172    0.76902   1.00
H2       0.88857    1.13032    0.81080   1.00
H2       0.85837    1.13852    0.76966   1.00
H2       0.93720    1.17362    0.70185   1.00
H2       0.91484    1.12808    0.70682   1.00
H2       0.88570    1.17050    0.70747   1.00
H2       0.84242    1.22014    0.74589   1.00
H2       0.82039    1.25208    0.77985   1.00
H2       0.85996    1.26832    0.75294   1.00
H2       0.83053    1.18402    0.81252   1.00
H2       0.86638    1.18568    0.84875   1.00
H2       0.83209    1.22328    0.84549   1.00
H2       1.00356    1.18188    0.91348   1.00
H2       1.05280    1.18309    0.92742   1.00
H2       1.03977    1.19548    0.87951   1.00
H2       1.04043    1.11625    0.95391   1.00
H2       0.99373    1.11074    0.93380   1.00
H2       1.03066    1.07622    0.92386   1.00
H2       1.00860    1.01702    0.80390   1.00
H2       0.98093    1.05935    0.79568   1.00
H2       1.02835    1.05535    0.77570   1.00
H2       1.08338    1.05916    0.87144   1.00
H2       1.06755    1.01712    0.84679   1.00
H2       1.08835    1.05585    0.82004   1.00
H2       1.03506    1.20156    0.81189   1.00
H2       1.05763    1.18881    0.76726   1.00
H2       1.00997    1.17334    0.77716   1.00
H2       1.11431    1.15544    0.79401   1.00
H2       1.10013    1.17122    0.84093   1.00
H2       1.11118    1.12157    0.83220   1.00
C4       0.64416    0.91802    0.91460   1.00
C4       0.68588    0.91759    0.91519   1.00
C3       0.62136    0.94942    0.92911   1.00
C3       0.70884    0.94682    0.93350   1.00
C3       0.62377    0.88509    0.89925   1.00
C3       0.70614    0.88640    0.89643   1.00
C2       0.55988    0.91583    0.91413   1.00
C2       0.77012    0.91417    0.91587   1.00
C3       0.58038    0.94829    0.92910   1.00
C3       0.74981    0.94538    0.93353   1.00
C3       0.58242    0.88483    0.89883   1.00
C3       0.74738    0.88461    0.89824   1.00
H1       0.63385    0.97410    0.93999   1.00
H1       0.69648    0.96990    0.94757   1.00
C5       0.64480    0.85273    0.88426   1.00
C5       0.68520    0.85697    0.87628   1.00
H1       0.56545    0.97175    0.94024   1.00
H1       0.76490    0.96751    0.94694   1.00
H1       0.56820    0.86149    0.88674   1.00
H1       0.76132    0.86082    0.88684   1.00
O3       0.62539    0.81860    0.87558   1.00
O3       0.70401    0.83115    0.85165   1.00
Si1      0.62253    0.78400    0.90822   1.00
Si1      0.71221    0.84418    0.80659   1.00
C6       0.58962    0.75377    0.88259   1.00
C6       0.66902    0.76224    0.91169   1.00
C6       0.60247    0.79980    0.95296   1.00
C6       0.69807    0.89158    0.79191   1.00
C6       0.76302    0.83940    0.80217   1.00
C6       0.69023    0.80893    0.77632   1.00
C6       0.55306    0.77468    0.86472   1.00
H2       0.60709    0.74450    0.85759   1.00
C6       0.57353    0.71517    0.90131   1.00
H2       0.68142    0.76861    0.88307   1.00
C6       0.69866    0.77908    0.94206   1.00
C6       0.67164    0.71688    0.91637   1.00
H2       0.57669    0.81598    0.94342   1.00
C6       0.58728    0.76759    0.98165   1.00
C6       0.62651    0.82823    0.97976   1.00
C6       0.65429    0.90344    0.79692   1.00
C6       0.72275    0.92764    0.80533   1.00
H2       0.70288    0.89059    0.76044   1.00
H2       0.77449    0.86311    0.82006   1.00
C6       0.78122    0.80123    0.81950   1.00
C6       0.78107    0.84472    0.76059   1.00
H2       0.71125    0.78499    0.77581   1.00
C6       0.65164    0.79037    0.79168   1.00
C6       0.68256    0.81987    0.73261   1.00
H2       0.56154    0.79879    0.84567   1.00
H2       0.53410    0.78635    0.88756   1.00
H2       0.53583    0.75460    0.84690   1.00
H2       0.56892    0.69315    0.87868   1.00
H2       0.59322    0.70271    0.92283   1.00
H2       0.54536    0.71949    0.91558   1.00
H2       0.72828    0.76902    0.93571   1.00
H2       0.69968    0.81080    0.94143   1.00
H2       0.69148    0.76966    0.97163   1.00
H2       0.65638    0.70185    0.89280   1.00
H2       0.70192    0.70682    0.91516   1.00
H2       0.65950    0.70747    0.94430   1.00
H2       0.60986    0.74589    0.98758   1.00
H2       0.57792    0.77985    1.00961   1.00
H2       0.56168    0.75294    0.97004   1.00
H2       0.64598    0.81252    0.99947   1.00
H2       0.64432    0.84875    0.96362   1.00
H2       0.60672    0.84549    0.99791   1.00
H2       0.64812    0.91348    0.82644   1.00
H2       0.64691    0.92742    0.77720   1.00
H2       0.63452    0.87951    0.79023   1.00
H2       0.71375    0.95391    0.78957   1.00
H2       0.71926    0.93380    0.83627   1.00
H2       0.75378    0.92386    0.79934   1.00
H2       0.81298    0.80390    0.82140   1.00
H2       0.77065    0.79568    0.84907   1.00
H2       0.77465    0.77570    0.80165   1.00
H2       0.77084    0.87144    0.74662   1.00
H2       0.81288    0.84679    0.76245   1.00
H2       0.77415    0.82004    0.74165   1.00
H2       0.62844    0.81189    0.79494   1.00
H2       0.64119    0.76726    0.77237   1.00
H2       0.65666    0.77716    0.82003   1.00
H2       0.67456    0.79401    0.71569   1.00
H2       0.65878    0.84093    0.72987   1.00
H2       0.70843    0.83220    0.71882   1.00
C4       1.18584    0.91802    0.91540   1.00
C4       1.14412    0.91759    0.91481   1.00
C3       1.20864    0.94942    0.90089   1.00
C3       1.12116    0.94682    0.89650   1.00
C3       1.20623    0.88509    0.93075   1.00
C3       1.12386    0.88640    0.93357   1.00
C2       1.27012    0.91583    0.91587   1.00
C2       1.05988    0.91417    0.91413   1.00
C3       1.24962    0.94829    0.90090   1.00
C3       1.08019    0.94538    0.89647   1.00
C3       1.24758    0.88483    0.93117   1.00
C3       1.08262    0.88461    0.93176   1.00
H1       1.19615    0.97410    0.89001   1.00
H1       1.13352    0.96990    0.88243   1.00
C5       1.18520    0.85273    0.94574   1.00
C5       1.14480    0.85697    0.95372   1.00
H1       1.26455    0.97175    0.88976   1.00
H1       1.06510    0.96751    0.88306   1.00
H1       1.26180    0.86149    0.94326   1.00
H1       1.06868    0.86082    0.94316   1.00
O3       1.20461    0.81860    0.95442   1.00
O3       1.12599    0.83115    0.97835   1.00
Si1      1.20747    0.78400    0.92178   1.00
Si1      1.11779    0.84418    1.02341   1.00
C6       1.24038    0.75377    0.94741   1.00
C6       1.16098    0.76224    0.91831   1.00
C6       1.22753    0.79980    0.87704   1.00
C6       1.13193    0.89158    1.03809   1.00
C6       1.06698    0.83940    1.02783   1.00
C6       1.13977    0.80893    1.05368   1.00
C6       1.27694    0.77468    0.96528   1.00
H2       1.22291    0.74450    0.97241   1.00
C6       1.25647    0.71517    0.92869   1.00
H2       1.14858    0.76861    0.94693   1.00
C6       1.13134    0.77908    0.88794   1.00
C6       1.15836    0.71688    0.91363   1.00
H2       1.25331    0.81598    0.88658   1.00
C6       1.24272    0.76759    0.84835   1.00
C6       1.20349    0.82823    0.85024   1.00
C6       1.17571    0.90344    1.03308   1.00
C6       1.10725    0.92764    1.02467   1.00
H2       1.12712    0.89059    1.06956   1.00
H2       1.05551    0.86311    1.00994   1.00
C6       1.04878    0.80123    1.01050   1.00
C6       1.04893    0.84472    1.06941   1.00
H2       1.11875    0.78499    1.05419   1.00
C6       1.17836    0.79037    1.03832   1.00
C6       1.14744    0.81987    1.09739   1.00
H2       1.26846    0.79879    0.98433   1.00
H2       1.29590    0.78635    0.94244   1.00
H2       1.29417    0.75460    0.98310   1.00
H2       1.26108    0.69315    0.95132   1.00
H2       1.23678    0.70271    0.90717   1.00
H2       1.28464    0.71949    0.91442   1.00
H2       1.10172    0.76902    0.89429   1.00
H2       1.13032    0.81080    0.88857   1.00
H2       1.13852    0.76966    0.85837   1.00
H2       1.17362    0.70185    0.93720   1.00
H2       1.12808    0.70682    0.91484   1.00
H2       1.17050    0.70747    0.88570   1.00
H2       1.22014    0.74589    0.84242   1.00
H2       1.25208    0.77985    0.82039   1.00
H2       1.26832    0.75294    0.85996   1.00
H2       1.18402    0.81252    0.83053   1.00
H2       1.18568    0.84875    0.86638   1.00
H2       1.22328    0.84549    0.83209   1.00
H2       1.18188    0.91348    1.00356   1.00
H2       1.18309    0.92742    1.05280   1.00
H2       1.19548    0.87951    1.03977   1.00
H2       1.11625    0.95391    1.04043   1.00
H2       1.11074    0.93380    0.99373   1.00
H2       1.07622    0.92386    1.03066   1.00
H2       1.01702    0.80390    1.00860   1.00
H2       1.05935    0.79568    0.98093   1.00
H2       1.05535    0.77570    1.02835   1.00
H2       1.05916    0.87144    1.08338   1.00
H2       1.01712    0.84679    1.06755   1.00
H2       1.05585    0.82004    1.08835   1.00
H2       1.20156    0.81189    1.03506   1.00
H2       1.18881    0.76726    1.05763   1.00
H2       1.17334    0.77716    1.00997   1.00
H2       1.15544    0.79401    1.11431   1.00
H2       1.17122    0.84093    1.10013   1.00
H2       1.12157    0.83220    1.11118   1.00
C4       0.91460    0.64416    0.91802   1.00
C4       0.91519    0.68588    0.91759   1.00
C3       0.92911    0.62136    0.94942   1.00
C3       0.93350    0.70884    0.94682   1.00
C3       0.89925    0.62377    0.88509   1.00
C3       0.89643    0.70614    0.88640   1.00
C2       0.91413    0.55988    0.91583   1.00
C2       0.91587    0.77012    0.91417   1.00
C3       0.92910    0.58038    0.94829   1.00
C3       0.93353    0.74981    0.94538   1.00
C3       0.89883    0.58242    0.88483   1.00
C3       0.89824    0.74738    0.88461   1.00
H1       0.93999    0.63385    0.97410   1.00
H1       0.94757    0.69648    0.96990   1.00
C5       0.88426    0.64480    0.85273   1.00
C5       0.87628    0.68520    0.85697   1.00
H1       0.94024    0.56545    0.97175   1.00
H1       0.94694    0.76490    0.96751   1.00
H1       0.88674    0.56820    0.86149   1.00
H1       0.88684    0.76132    0.86082   1.00
O3       0.87558    0.62539    0.81860   1.00
O3       0.85165    0.70401    0.83115   1.00
Si1      0.90822    0.62253    0.78400   1.00
Si1      0.80659    0.71221    0.84418   1.00
C6       0.88259    0.58962    0.75377   1.00
C6       0.91169    0.66902    0.76224   1.00
C6       0.95296    0.60247    0.79980   1.00
C6       0.79191    0.69807    0.89158   1.00
C6       0.80217    0.76302    0.83940   1.00
C6       0.77632    0.69023    0.80893   1.00
C6       0.86472    0.55306    0.77468   1.00
H2       0.85759    0.60709    0.74450   1.00
C6       0.90131    0.57353    0.71517   1.00
H2       0.88307    0.68142    0.76861   1.00
C6       0.94206    0.69866    0.77908   1.00
C6       0.91637    0.67164    0.71688   1.00
H2       0.94342    0.57669    0.81598   1.00
C6       0.98165    0.58728    0.76759   1.00
C6       0.97976    0.62651    0.82823   1.00
C6       0.79692    0.65429    0.90344   1.00
C6       0.80533    0.72275    0.92764   1.00
H2       0.76044    0.70288    0.89059   1.00
H2       0.82006    0.77449    0.86311   1.00
C6       0.81950    0.78122    0.80123   1.00
C6       0.76059    0.78107    0.84472   1.00
H2       0.77581    0.71125    0.78499   1.00
C6       0.79168    0.65164    0.79037   1.00
C6       0.73261    0.68256    0.81987   1.00
H2       0.84567    0.56154    0.79879   1.00
H2       0.88756    0.53410    0.78635   1.00
H2       0.84690    0.53583    0.75460   1.00
H2       0.87868    0.56892    0.69315   1.00
H2       0.92283    0.59322    0.70271   1.00
H2       0.91558    0.54536    0.71949   1.00
H2       0.93571    0.72828    0.76902   1.00
H2       0.94143    0.69968    0.81080   1.00
H2       0.97163    0.69148    0.76966   1.00
H2       0.89280    0.65638    0.70185   1.00
H2       0.91516    0.70192    0.70682   1.00
H2       0.94430    0.65950    0.70747   1.00
H2       0.98758    0.60986    0.74589   1.00
H2       1.00961    0.57792    0.77985   1.00
H2       0.97004    0.56168    0.75294   1.00
H2       0.99947    0.64598    0.81252   1.00
H2       0.96362    0.64432    0.84875   1.00
H2       0.99791    0.60672    0.84549   1.00
H2       0.82644    0.64812    0.91348   1.00
H2       0.77720    0.64691    0.92742   1.00
H2       0.79023    0.63452    0.87951   1.00
H2       0.78957    0.71375    0.95391   1.00
H2       0.83627    0.71926    0.93380   1.00
H2       0.79934    0.75378    0.92386   1.00
H2       0.82140    0.81298    0.80390   1.00
H2       0.84907    0.77065    0.79568   1.00
H2       0.80165    0.77465    0.77570   1.00
H2       0.74662    0.77084    0.87144   1.00
H2       0.76245    0.81288    0.84679   1.00
H2       0.74165    0.77415    0.82004   1.00
H2       0.79494    0.62844    0.81189   1.00
H2       0.77237    0.64119    0.76726   1.00
H2       0.82003    0.65666    0.77716   1.00
H2       0.71569    0.67456    0.79401   1.00
H2       0.72987    0.65878    0.84093   1.00
H2       0.71882    0.70843    0.83220   1.00
C4       0.91802    0.91460    0.64416   1.00
C4       0.91759    0.91519    0.68588   1.00
C3       0.94942    0.92911    0.62136   1.00
C3       0.94682    0.93350    0.70884   1.00
C3       0.88509    0.89925    0.62377   1.00
C3       0.88640    0.89643    0.70614   1.00
C2       0.91583    0.91413    0.55988   1.00
C2       0.91417    0.91587    0.77012   1.00
C3       0.94829    0.92910    0.58038   1.00
C3       0.94538    0.93353    0.74981   1.00
C3       0.88483    0.89883    0.58242   1.00
C3       0.88461    0.89824    0.74738   1.00
H1       0.97410    0.93999    0.63385   1.00
H1       0.96990    0.94757    0.69648   1.00
C5       0.85273    0.88426    0.64480   1.00
C5       0.85697    0.87628    0.68520   1.00
H1       0.97175    0.94024    0.56545   1.00
H1       0.96751    0.94694    0.76490   1.00
H1       0.86149    0.88674    0.56820   1.00
H1       0.86082    0.88684    0.76132   1.00
O3       0.81860    0.87558    0.62539   1.00
O3       0.83115    0.85165    0.70401   1.00
Si1      0.78400    0.90822    0.62253   1.00
Si1      0.84418    0.80659    0.71221   1.00
C6       0.75377    0.88259    0.58962   1.00
C6       0.76224    0.91169    0.66902   1.00
C6       0.79980    0.95296    0.60247   1.00
C6       0.89158    0.79191    0.69807   1.00
C6       0.83940    0.80217    0.76302   1.00
C6       0.80893    0.77632    0.69023   1.00
C6       0.77468    0.86472    0.55306   1.00
H2       0.74450    0.85759    0.60709   1.00
C6       0.71517    0.90131    0.57353   1.00
H2       0.76861    0.88307    0.68142   1.00
C6       0.77908    0.94206    0.69866   1.00
C6       0.71688    0.91637    0.67164   1.00
H2       0.81598    0.94342    0.57669   1.00
C6       0.76759    0.98165    0.58728   1.00
C6       0.82823    0.97976    0.62651   1.00
C6       0.90344    0.79692    0.65429   1.00
C6       0.92764    0.80533    0.72275   1.00
H2       0.89059    0.76044    0.70288   1.00
H2       0.86311    0.82006    0.77449   1.00
C6       0.80123    0.81950    0.78122   1.00
C6       0.84472    0.76059    0.78107   1.00
H2       0.78499    0.77581    0.71125   1.00
C6       0.79037    0.79168    0.65164   1.00
C6       0.81987    0.73261    0.68256   1.00
H2       0.79879    0.84567    0.56154   1.00
H2       0.78635    0.88756    0.53410   1.00
H2       0.75460    0.84690    0.53583   1.00
H2       0.69315    0.87868    0.56892   1.00
H2       0.70271    0.92283    0.59322   1.00
H2       0.71949    0.91558    0.54536   1.00
H2       0.76902    0.93571    0.72828   1.00
H2       0.81080    0.94143    0.69968   1.00
H2       0.76966    0.97163    0.69148   1.00
H2       0.70185    0.89280    0.65638   1.00
H2       0.70682    0.91516    0.70192   1.00
H2       0.70747    0.94430    0.65950   1.00
H2       0.74589    0.98758    0.60986   1.00
H2       0.77985    1.00961    0.57792   1.00
H2       0.75294    0.97004    0.56168   1.00
H2       0.81252    0.99947    0.64598   1.00
H2       0.84875    0.96362    0.64432   1.00
H2       0.84549    0.99791    0.60672   1.00
H2       0.91348    0.82644    0.64812   1.00
H2       0.92742    0.77720    0.64691   1.00
H2       0.87951    0.79023    0.63452   1.00
H2       0.95391    0.78957    0.71375   1.00
H2       0.93380    0.83627    0.71926   1.00
H2       0.92386    0.79934    0.75378   1.00
H2       0.80390    0.82140    0.81298   1.00
H2       0.79568    0.84907    0.77065   1.00
H2       0.77570    0.80165    0.77465   1.00
H2       0.87144    0.74662    0.77084   1.00
H2       0.84679    0.76245    0.81288   1.00
H2       0.82004    0.74165    0.77415   1.00
H2       0.81189    0.79494    0.62844   1.00
H2       0.76726    0.77237    0.64119   1.00
H2       0.77716    0.82003    0.65666   1.00
H2       0.79401    0.71569    0.67456   1.00
H2       0.84093    0.72987    0.65878   1.00
H2       0.83220    0.71882    0.70843   1.00
C4       0.41802    0.41540    1.18584   1.00
C4       0.41759    0.41481    1.14412   1.00
C3       0.44942    0.40089    1.20864   1.00
C3       0.44682    0.39650    1.12116   1.00
C3       0.38509    0.43075    1.20623   1.00
C3       0.38640    0.43357    1.12386   1.00
C2       0.41583    0.41587    1.27012   1.00
C2       0.41417    0.41413    1.05988   1.00
C3       0.44829    0.40090    1.24962   1.00
C3       0.44538    0.39647    1.08019   1.00
C3       0.38483    0.43117    1.24758   1.00
C3       0.38461    0.43176    1.08262   1.00
H1       0.47410    0.39001    1.19615   1.00
H1       0.46990    0.38243    1.13352   1.00
C5       0.35273    0.44574    1.18520   1.00
C5       0.35697    0.45372    1.14480   1.00
H1       0.47175    0.38976    1.26455   1.00
H1       0.46751    0.38306    1.06510   1.00
H1       0.36149    0.44326    1.26180   1.00
H1       0.36082    0.44316    1.06868   1.00
O3       0.31860    0.45442    1.20461   1.00
O3       0.33115    0.47835    1.12599   1.00
Si1      0.28400    0.42178    1.20747   1.00
Si1      0.34418    0.52341    1.11779   1.00
C6       0.25377    0.44741    1.24038   1.00
C6       0.26224    0.41831    1.16098   1.00
C6       0.29980    0.37704    1.22753   1.00
C6       0.39158    0.53809    1.13193   1.00
C6       0.33940    0.52783    1.06698   1.00
C6       0.30893    0.55368    1.13977   1.00
C6       0.27468    0.46528    1.27694   1.00
H2       0.24450    0.47241    1.22291   1.00
C6       0.21517    0.42869    1.25647   1.00
H2       0.26861    0.44693    1.14858   1.00
C6       0.27908    0.38794    1.13134   1.00
C6       0.21688    0.41363    1.15836   1.00
H2       0.31598    0.38658    1.25331   1.00
C6       0.26759    0.34835    1.24272   1.00
C6       0.32823    0.35024    1.20349   1.00
C6       0.40344    0.53308    1.17571   1.00
C6       0.42764    0.52467    1.10725   1.00
H2       0.39059    0.56956    1.12712   1.00
H2       0.36311    0.50994    1.05551   1.00
C6       0.30123    0.51050    1.04878   1.00
C6       0.34472    0.56941    1.04893   1.00
H2       0.28499    0.55419    1.11875   1.00
C6       0.29037    0.53832    1.17836   1.00
C6       0.31987    0.59739    1.14744   1.00
H2       0.29879    0.48433    1.26846   1.00
H2       0.28635    0.44244    1.29590   1.00
H2       0.25460    0.48310    1.29417   1.00
H2       0.19315    0.45132    1.26108   1.00
H2       0.20271    0.40717    1.23678   1.00
H2       0.21949    0.41442    1.28464   1.00
H2       0.26902    0.39429    1.10172   1.00
H2       0.31080    0.38857    1.13032   1.00
H2       0.26966    0.35837    1.13852   1.00
H2       0.20185    0.43720    1.17362   1.00
H2       0.20682    0.41484    1.12808   1.00
H2       0.20747    0.38570    1.17050   1.00
H2       0.24589    0.34242    1.22014   1.00
H2       0.27985    0.32039    1.25208   1.00
H2       0.25294    0.35996    1.26832   1.00
H2       0.31252    0.33053    1.18402   1.00
H2       0.34875    0.36638    1.18568   1.00
H2       0.34549    0.33209    1.22328   1.00
H2       0.41348    0.50356    1.18188   1.00
H2       0.42742    0.55280    1.18309   1.00
H2       0.37951    0.53977    1.19548   1.00
H2       0.45391    0.54043    1.11625   1.00
H2       0.43380    0.49373    1.11074   1.00
H2       0.42386    0.53066    1.07622   1.00
H2       0.30390    0.50860    1.01702   1.00
H2       0.29568    0.48093    1.05935   1.00
H2       0.27570    0.52835    1.05535   1.00
H2       0.37144    0.58338    1.05916   1.00
H2       0.34679    0.56755    1.01712   1.00
H2       0.32004    0.58835    1.05585   1.00
H2       0.31189    0.53506    1.20156   1.00
H2       0.26726    0.55763    1.18881   1.00
H2       0.27716    0.50997    1.17334   1.00
H2       0.29401    0.61431    1.15544   1.00
H2       0.34093    0.60013    1.17122   1.00
H2       0.33220    0.61118    1.12157   1.00
C4       0.41540    0.68584    0.91802   1.00
C4       0.41481    0.64412    0.91759   1.00
C3       0.40089    0.70864    0.94942   1.00
C3       0.39650    0.62116    0.94682   1.00
C3       0.43075    0.70623    0.88509   1.00
C3       0.43357    0.62386    0.88640   1.00
C2       0.41587    0.77012    0.91583   1.00
C2       0.41413    0.55988    0.91417   1.00
C3       0.40090    0.74962    0.94829   1.00
C3       0.39647    0.58019    0.94538   1.00
C3       0.43117    0.74758    0.88483   1.00
C3       0.43176    0.58262    0.88461   1.00
H1       0.39001    0.69615    0.97410   1.00
H1       0.38243    0.63352    0.96990   1.00
C5       0.44574    0.68520    0.85273   1.00
C5       0.45372    0.64480    0.85697   1.00
H1       0.38976    0.76455    0.97175   1.00
H1       0.38306    0.56510    0.96751   1.00
H1       0.44326    0.76180    0.86149   1.00
H1       0.44316    0.56868    0.86082   1.00
O3       0.45442    0.70461    0.81860   1.00
O3       0.47835    0.62599    0.83115   1.00
Si1      0.42178    0.70747    0.78400   1.00
Si1      0.52341    0.61779    0.84418   1.00
C6       0.44741    0.74038    0.75377   1.00
C6       0.41831    0.66098    0.76224   1.00
C6       0.37704    0.72753    0.79980   1.00
C6       0.53809    0.63193    0.89158   1.00
C6       0.52783    0.56698    0.83940   1.00
C6       0.55368    0.63977    0.80893   1.00
C6       0.46528    0.77694    0.77468   1.00
H2       0.47241    0.72291    0.74450   1.00
C6       0.42869    0.75647    0.71517   1.00
H2       0.44693    0.64858    0.76861   1.00
C6       0.38794    0.63134    0.77908   1.00
C6       0.41363    0.65836    0.71688   1.00
H2       0.38658    0.75331    0.81598   1.00
C6       0.34835    0.74272    0.76759   1.00
C6       0.35024    0.70349    0.82823   1.00
C6       0.53308    0.67571    0.90344   1.00
C6       0.52467    0.60725    0.92764   1.00
H2       0.56956    0.62712    0.89059   1.00
H2       0.50994    0.55551    0.86311   1.00
C6       0.51050    0.54878    0.80123   1.00
C6       0.56941    0.54893    0.84472   1.00
H2       0.55419    0.61875    0.78499   1.00
C6       0.53832    0.67836    0.79037   1.00
C6       0.59739    0.64744    0.81987   1.00
H2       0.48433    0.76846    0.79879   1.00
H2       0.44244    0.79590    0.78635   1.00
H2       0.48310    0.79417    0.75460   1.00
H2       0.45132    0.76108    0.69315   1.00
H2       0.40717    0.73678    0.70271   1.00
H2       0.41442    0.78464    0.71949   1.00
H2       0.39429    0.60172    0.76902   1.00
H2       0.38857    0.63032    0.81080   1.00
H2       0.35837    0.63852    0.76966   1.00
H2       0.43720    0.67362    0.70185   1.00
H2       0.41484    0.62808    0.70682   1.00
H2       0.38570    0.67050    0.70747   1.00
H2       0.34242    0.72014    0.74589   1.00
H2       0.32039    0.75208    0.77985   1.00
H2       0.35996    0.76832    0.75294   1.00
H2       0.33053    0.68402    0.81252   1.00
H2       0.36638    0.68568    0.84875   1.00
H2       0.33209    0.72328    0.84549   1.00
H2       0.50356    0.68188    0.91348   1.00
H2       0.55280    0.68309    0.92742   1.00
H2       0.53977    0.69548    0.87951   1.00
H2       0.54043    0.61625    0.95391   1.00
H2       0.49373    0.61074    0.93380   1.00
H2       0.53066    0.57622    0.92386   1.00
H2       0.50860    0.51702    0.80390   1.00
H2       0.48093    0.55935    0.79568   1.00
H2       0.52835    0.55535    0.77570   1.00
H2       0.58338    0.55916    0.87144   1.00
H2       0.56755    0.51712    0.84679   1.00
H2       0.58835    0.55585    0.82004   1.00
H2       0.53506    0.70156    0.81189   1.00
H2       0.55763    0.68881    0.76726   1.00
H2       0.50997    0.67334    0.77716   1.00
H2       0.61431    0.65544    0.79401   1.00
H2       0.60013    0.67122    0.84093   1.00
H2       0.61118    0.62157    0.83220   1.00
C4       0.14416    0.41802    0.91460   1.00
C4       0.18588    0.41759    0.91519   1.00
C3       0.12136    0.44942    0.92911   1.00
C3       0.20884    0.44682    0.93350   1.00
C3       0.12377    0.38509    0.89925   1.00
C3       0.20614    0.38640    0.89643   1.00
C2       0.05988    0.41583    0.91413   1.00
C2       0.27012    0.41417    0.91587   1.00
C3       0.08038    0.44829    0.92910   1.00
C3       0.24981    0.44538    0.93353   1.00
C3       0.08242    0.38483    0.89883   1.00
C3       0.24738    0.38461    0.89824   1.00
H1       0.13385    0.47410    0.93999   1.00
H1       0.19648    0.46990    0.94757   1.00
C5       0.14480    0.35273    0.88426   1.00
C5       0.18520    0.35697    0.87628   1.00
H1       0.06545    0.47175    0.94024   1.00
H1       0.26490    0.46751    0.94694   1.00
H1       0.06820    0.36149    0.88674   1.00
H1       0.26132    0.36082    0.88684   1.00
O3       0.12539    0.31860    0.87558   1.00
O3       0.20401    0.33115    0.85165   1.00
Si1      0.12253    0.28400    0.90822   1.00
Si1      0.21221    0.34418    0.80659   1.00
C6       0.08962    0.25377    0.88259   1.00
C6       0.16902    0.26224    0.91169   1.00
C6       0.10247    0.29980    0.95296   1.00
C6       0.19807    0.39158    0.79191   1.00
C6       0.26302    0.33940    0.80217   1.00
C6       0.19023    0.30893    0.77632   1.00
C6       0.05306    0.27468    0.86472   1.00
H2       0.10709    0.24450    0.85759   1.00
C6       0.07353    0.21517    0.90131   1.00
H2       0.18142    0.26861    0.88307   1.00
C6       0.19866    0.27908    0.94206   1.00
C6       0.17164    0.21688    0.91637   1.00
H2       0.07669    0.31598    0.94342   1.00
C6       0.08728    0.26759    0.98165   1.00
C6       0.12651    0.32823    0.97976   1.00
C6       0.15429    0.40344    0.79692   1.00
C6       0.22275    0.42764    0.80533   1.00
H2       0.20288    0.39059    0.76044   1.00
H2       0.27449    0.36311    0.82006   1.00
C6       0.28122    0.30123    0.81950   1.00
C6       0.28107    0.34472    0.76059   1.00
H2       0.21125    0.28499    0.77581   1.00
C6       0.15164    0.29037    0.79168   1.00
C6       0.18256    0.31987    0.73261   1.00
H2       0.06154    0.29879    0.84567   1.00
H2       0.03410    0.28635    0.88756   1.00
H2       0.03583    0.25460    0.84690   1.00
H2       0.06892    0.19315    0.87868   1.00
H2       0.09322    0.20271    0.92283   1.00
H2       0.04536    0.21949    0.91558   1.00
H2       0.22828    0.26902    0.93571   1.00
H2       0.19968    0.31080    0.94143   1.00
H2       0.19148    0.26966    0.97163   1.00
H2       0.15638    0.20185    0.89280   1.00
H2       0.20192    0.20682    0.91516   1.00
H2       0.15950    0.20747    0.94430   1.00
H2       0.10986    0.24589    0.98758   1.00
H2       0.07792    0.27985    1.00961   1.00
H2       0.06168    0.25294    0.97004   1.00
H2       0.14598    0.31252    0.99947   1.00
H2       0.14432    0.34875    0.96362   1.00
H2       0.10672    0.34549    0.99791   1.00
H2       0.14812    0.41348    0.82644   1.00
H2       0.14691    0.42742    0.77720   1.00
H2       0.13452    0.37951    0.79023   1.00
H2       0.21375    0.45391    0.78957   1.00
H2       0.21926    0.43380    0.83627   1.00
H2       0.25378    0.42386    0.79934   1.00
H2       0.31298    0.30390    0.82140   1.00
H2       0.27065    0.29568    0.84907   1.00
H2       0.27465    0.27570    0.80165   1.00
H2       0.27084    0.37144    0.74662   1.00
H2       0.31288    0.34679    0.76245   1.00
H2       0.27415    0.32004    0.74165   1.00
H2       0.12844    0.31189    0.79494   1.00
H2       0.14119    0.26726    0.77237   1.00
H2       0.15666    0.27716    0.82003   1.00
H2       0.17456    0.29401    0.71569   1.00
H2       0.15878    0.34093    0.72987   1.00
H2       0.20843    0.33220    0.71882   1.00
C4       0.68584    0.41802    0.91540   1.00
C4       0.64412    0.41759    0.91481   1.00
C3       0.70864    0.44942    0.90089   1.00
C3       0.62116    0.44682    0.89650   1.00
C3       0.70623    0.38509    0.93075   1.00
C3       0.62386    0.38640    0.93357   1.00
C2       0.77012    0.41583    0.91587   1.00
C2       0.55988    0.41417    0.91413   1.00
C3       0.74962    0.44829    0.90090   1.00
C3       0.58019    0.44538    0.89647   1.00
C3       0.74758    0.38483    0.93117   1.00
C3       0.58262    0.38461    0.93176   1.00
H1       0.69615    0.47410    0.89001   1.00
H1       0.63352    0.46990    0.88243   1.00
C5       0.68520    0.35273    0.94574   1.00
C5       0.64480    0.35697    0.95372   1.00
H1       0.76455    0.47175    0.88976   1.00
H1       0.56510    0.46751    0.88306   1.00
H1       0.76180    0.36149    0.94326   1.00
H1       0.56868    0.36082    0.94316   1.00
O3       0.70461    0.31860    0.95442   1.00
O3       0.62599    0.33115    0.97835   1.00
Si1      0.70747    0.28400    0.92178   1.00
Si1      0.61779    0.34418    1.02341   1.00
C6       0.74038    0.25377    0.94741   1.00
C6       0.66098    0.26224    0.91831   1.00
C6       0.72753    0.29980    0.87704   1.00
C6       0.63193    0.39158    1.03809   1.00
C6       0.56698    0.33940    1.02783   1.00
C6       0.63977    0.30893    1.05368   1.00
C6       0.77694    0.27468    0.96528   1.00
H2       0.72291    0.24450    0.97241   1.00
C6       0.75647    0.21517    0.92869   1.00
H2       0.64858    0.26861    0.94693   1.00
C6       0.63134    0.27908    0.88794   1.00
C6       0.65836    0.21688    0.91363   1.00
H2       0.75331    0.31598    0.88658   1.00
C6       0.74272    0.26759    0.84835   1.00
C6       0.70349    0.32823    0.85024   1.00
C6       0.67571    0.40344    1.03308   1.00
C6       0.60725    0.42764    1.02467   1.00
H2       0.62712    0.39059    1.06956   1.00
H2       0.55551    0.36311    1.00994   1.00
C6       0.54878    0.30123    1.01050   1.00
C6       0.54893    0.34472    1.06941   1.00
H2       0.61875    0.28499    1.05419   1.00
C6       0.67836    0.29037    1.03832   1.00
C6       0.64744    0.31987    1.09739   1.00
H2       0.76846    0.29879    0.98433   1.00
H2       0.79590    0.28635    0.94244   1.00
H2       0.79417    0.25460    0.98310   1.00
H2       0.76108    0.19315    0.95132   1.00
H2       0.73678    0.20271    0.90717   1.00
H2       0.78464    0.21949    0.91442   1.00
H2       0.60172    0.26902    0.89429   1.00
H2       0.63032    0.31080    0.88857   1.00
H2       0.63852    0.26966    0.85837   1.00
H2       0.67362    0.20185    0.93720   1.00
H2       0.62808    0.20682    0.91484   1.00
H2       0.67050    0.20747    0.88570   1.00
H2       0.72014    0.24589    0.84242   1.00
H2       0.75208    0.27985    0.82039   1.00
H2       0.76832    0.25294    0.85996   1.00
H2       0.68402    0.31252    0.83053   1.00
H2       0.68568    0.34875    0.86638   1.00
H2       0.72328    0.34549    0.83209   1.00
H2       0.68188    0.41348    1.00356   1.00
H2       0.68309    0.42742    1.05280   1.00
H2       0.69548    0.37951    1.03977   1.00
H2       0.61625    0.45391    1.04043   1.00
H2       0.61074    0.43380    0.99373   1.00
H2       0.57622    0.42386    1.03066   1.00
H2       0.51702    0.30390    1.00860   1.00
H2       0.55935    0.29568    0.98093   1.00
H2       0.55535    0.27570    1.02835   1.00
H2       0.55916    0.37144    1.08338   1.00
H2       0.51712    0.34679    1.06755   1.00
H2       0.55585    0.32004    1.08835   1.00
H2       0.70156    0.31189    1.03506   1.00
H2       0.68881    0.26726    1.05763   1.00
H2       0.67334    0.27716    1.00997   1.00
H2       0.65544    0.29401    1.11431   1.00
H2       0.67122    0.34093    1.10013   1.00
H2       0.62157    0.33220    1.11118   1.00
C4       0.41460    0.14416    0.91802   1.00
C4       0.41519    0.18588    0.91759   1.00
C3       0.42911    0.12136    0.94942   1.00
C3       0.43350    0.20884    0.94682   1.00
C3       0.39925    0.12377    0.88509   1.00
C3       0.39643    0.20614    0.88640   1.00
C2       0.41413    0.05988    0.91583   1.00
C2       0.41587    0.27012    0.91417   1.00
C3       0.42910    0.08038    0.94829   1.00
C3       0.43353    0.24981    0.94538   1.00
C3       0.39883    0.08242    0.88483   1.00
C3       0.39824    0.24738    0.88461   1.00
H1       0.43999    0.13385    0.97410   1.00
H1       0.44757    0.19648    0.96990   1.00
C5       0.38426    0.14480    0.85273   1.00
C5       0.37628    0.18520    0.85697   1.00
H1       0.44024    0.06545    0.97175   1.00
H1       0.44694    0.26490    0.96751   1.00
H1       0.38674    0.06820    0.86149   1.00
H1       0.38684    0.26132    0.86082   1.00
O3       0.37558    0.12539    0.81860   1.00
O3       0.35165    0.20401    0.83115   1.00
Si1      0.40822    0.12253    0.78400   1.00
Si1      0.30659    0.21221    0.84418   1.00
C6       0.38259    0.08962    0.75377   1.00
C6       0.41169    0.16902    0.76224   1.00
C6       0.45296    0.10247    0.79980   1.00
C6       0.29191    0.19807    0.89158   1.00
C6       0.30217    0.26302    0.83940   1.00
C6       0.27632    0.19023    0.80893   1.00
C6       0.36472    0.05306    0.77468   1.00
H2       0.35759    0.10709    0.74450   1.00
C6       0.40131    0.07353    0.71517   1.00
H2       0.38307    0.18142    0.76861   1.00
C6       0.44206    0.19866    0.77908   1.00
C6       0.41637    0.17164    0.71688   1.00
H2       0.44342    0.07669    0.81598   1.00
C6       0.48165    0.08728    0.76759   1.00
C6       0.47976    0.12651    0.82823   1.00
C6       0.29692    0.15429    0.90344   1.00
C6       0.30533    0.22275    0.92764   1.00
H2       0.26044    0.20288    0.89059   1.00
H2       0.32006    0.27449    0.86311   1.00
C6       0.31950    0.28122    0.80123   1.00
C6       0.26059    0.28107    0.84472   1.00
H2       0.27581    0.21125    0.78499   1.00
C6       0.29168    0.15164    0.79037   1.00
C6       0.23261    0.18256    0.81987   1.00
H2       0.34567    0.06154    0.79879   1.00
H2       0.38756    0.03410    0.78635   1.00
H2       0.34690    0.03583    0.75460   1.00
H2       0.37868    0.06892    0.69315   1.00
H2       0.42283    0.09322    0.70271   1.00
H2       0.41558    0.04536    0.71949   1.00
H2       0.43571    0.22828    0.76902   1.00
H2       0.44143    0.19968    0.81080   1.00
H2       0.47163    0.19148    0.76966   1.00
H2       0.39280    0.15638    0.70185   1.00
H2       0.41516    0.20192    0.70682   1.00
H2       0.44430    0.15950    0.70747   1.00
H2       0.48758    0.10986    0.74589   1.00
H2       0.50961    0.07792    0.77985   1.00
H2       0.47004    0.06168    0.75294   1.00
H2       0.49947    0.14598    0.81252   1.00
H2       0.46362    0.14432    0.84875   1.00
H2       0.49791    0.10672    0.84549   1.00
H2       0.32644    0.14812    0.91348   1.00
H2       0.27720    0.14691    0.92742   1.00
H2       0.29023    0.13452    0.87951   1.00
H2       0.28957    0.21375    0.95391   1.00
H2       0.33627    0.21926    0.93380   1.00
H2       0.29934    0.25378    0.92386   1.00
H2       0.32140    0.31298    0.80390   1.00
H2       0.34907    0.27065    0.79568   1.00
H2       0.30165    0.27465    0.77570   1.00
H2       0.24662    0.27084    0.87144   1.00
H2       0.26245    0.31288    0.84679   1.00
H2       0.24165    0.27415    0.82004   1.00
H2       0.29494    0.12844    0.81189   1.00
H2       0.27237    0.14119    0.76726   1.00
H2       0.32003    0.15666    0.77716   1.00
H2       0.21569    0.17456    0.79401   1.00
H2       0.22987    0.15878    0.84093   1.00
H2       0.21882    0.20843    0.83220   1.00
C4       0.41802    0.41460    0.64416   1.00
C4       0.41759    0.41519    0.68588   1.00
C3       0.44942    0.42911    0.62136   1.00
C3       0.44682    0.43350    0.70884   1.00
C3       0.38509    0.39925    0.62377   1.00
C3       0.38640    0.39643    0.70614   1.00
C2       0.41583    0.41413    0.55988   1.00
C2       0.41417    0.41587    0.77012   1.00
C3       0.44829    0.42910    0.58038   1.00
C3       0.44538    0.43353    0.74981   1.00
C3       0.38483    0.39883    0.58242   1.00
C3       0.38461    0.39824    0.74738   1.00
H1       0.47410    0.43999    0.63385   1.00
H1       0.46990    0.44757    0.69648   1.00
C5       0.35273    0.38426    0.64480   1.00
C5       0.35697    0.37628    0.68520   1.00
H1       0.47175    0.44024    0.56545   1.00
H1       0.46751    0.44694    0.76490   1.00
H1       0.36149    0.38674    0.56820   1.00
H1       0.36082    0.38684    0.76132   1.00
O3       0.31860    0.37558    0.62539   1.00
O3       0.33115    0.35165    0.70401   1.00
Si1      0.28400    0.40822    0.62253   1.00
Si1      0.34418    0.30659    0.71221   1.00
C6       0.25377    0.38259    0.58962   1.00
C6       0.26224    0.41169    0.66902   1.00
C6       0.29980    0.45296    0.60247   1.00
C6       0.39158    0.29191    0.69807   1.00
C6       0.33940    0.30217    0.76302   1.00
C6       0.30893    0.27632    0.69023   1.00
C6       0.27468    0.36472    0.55306   1.00
H2       0.24450    0.35759    0.60709   1.00
C6       0.21517    0.40131    0.57353   1.00
H2       0.26861    0.38307    0.68142   1.00
C6       0.27908    0.44206    0.69866   1.00
C6       0.21688    0.41637    0.67164   1.00
H2       0.31598    0.44342    0.57669   1.00
C6       0.26759    0.48165    0.58728   1.00
C6       0.32823    0.47976    0.62651   1.00
C6       0.40344    0.29692    0.65429   1.00
C6       0.42764    0.30533    0.72275   1.00
H2       0.39059    0.26044    0.70288   1.00
H2       0.36311    0.32006    0.77449   1.00
C6       0.30123    0.31950    0.78122   1.00
C6       0.34472    0.26059    0.78107   1.00
H2       0.28499    0.27581    0.71125   1.00
C6       0.29037    0.29168    0.65164   1.00
C6       0.31987    0.23261    0.68256   1.00
H2       0.29879    0.34567    0.56154   1.00
H2       0.28635    0.38756    0.53410   1.00
H2       0.25460    0.34690    0.53583   1.00
H2       0.19315    0.37868    0.56892   1.00
H2       0.20271    0.42283    0.59322   1.00
H2       0.21949    0.41558    0.54536   1.00
H2       0.26902    0.43571    0.72828   1.00
H2       0.31080    0.44143    0.69968   1.00
H2       0.26966    0.47163    0.69148   1.00
H2       0.20185    0.39280    0.65638   1.00
H2       0.20682    0.41516    0.70192   1.00
H2       0.20747    0.44430    0.65950   1.00
H2       0.24589    0.48758    0.60986   1.00
H2       0.27985    0.50961    0.57792   1.00
H2       0.25294    0.47004    0.56168   1.00
H2       0.31252    0.49947    0.64598   1.00
H2       0.34875    0.46362    0.64432   1.00
H2       0.34549    0.49791    0.60672   1.00
H2       0.41348    0.32644    0.64812   1.00
H2       0.42742    0.27720    0.64691   1.00
H2       0.37951    0.29023    0.63452   1.00
H2       0.45391    0.28957    0.71375   1.00
H2       0.43380    0.33627    0.71926   1.00
H2       0.42386    0.29934    0.75378   1.00
H2       0.30390    0.32140    0.81298   1.00
H2       0.29568    0.34907    0.77065   1.00
H2       0.27570    0.30165    0.77465   1.00
H2       0.37144    0.24662    0.77084   1.00
H2       0.34679    0.26245    0.81288   1.00
H2       0.32004    0.24165    0.77415   1.00
H2       0.31189    0.29494    0.62844   1.00
H2       0.26726    0.27237    0.64119   1.00
H2       0.27716    0.32003    0.65666   1.00
H2       0.29401    0.21569    0.67456   1.00
H2       0.34093    0.22987    0.65878   1.00
H2       0.33220    0.21882    0.70843   1.00
C4       0.41802    0.91540    0.68584   1.00
C4       0.41759    0.91481    0.64412   1.00
C3       0.44942    0.90089    0.70864   1.00
C3       0.44682    0.89650    0.62116   1.00
C3       0.38509    0.93075    0.70623   1.00
C3       0.38640    0.93357    0.62386   1.00
C2       0.41583    0.91587    0.77012   1.00
C2       0.41417    0.91413    0.55988   1.00
C3       0.44829    0.90090    0.74962   1.00
C3       0.44538    0.89647    0.58019   1.00
C3       0.38483    0.93117    0.74758   1.00
C3       0.38461    0.93176    0.58262   1.00
H1       0.47410    0.89001    0.69615   1.00
H1       0.46990    0.88243    0.63352   1.00
C5       0.35273    0.94574    0.68520   1.00
C5       0.35697    0.95372    0.64480   1.00
H1       0.47175    0.88976    0.76455   1.00
H1       0.46751    0.88306    0.56510   1.00
H1       0.36149    0.94326    0.76180   1.00
H1       0.36082    0.94316    0.56868   1.00
O3       0.31860    0.95442    0.70461   1.00
O3       0.33115    0.97835    0.62599   1.00
Si1      0.28400    0.92178    0.70747   1.00
Si1      0.34418    1.02341    0.61779   1.00
C6       0.25377    0.94741    0.74038   1.00
C6       0.26224    0.91831    0.66098   1.00
C6       0.29980    0.87704    0.72753   1.00
C6       0.39158    1.03809    0.63193   1.00
C6       0.33940    1.02783    0.56698   1.00
C6       0.30893    1.05368    0.63977   1.00
C6       0.27468    0.96528    0.77694   1.00
H2       0.24450    0.97241    0.72291   1.00
C6       0.21517    0.92869    0.75647   1.00
H2       0.26861    0.94693    0.64858   1.00
C6       0.27908    0.88794    0.63134   1.00
C6       0.21688    0.91363    0.65836   1.00
H2       0.31598    0.88658    0.75331   1.00
C6       0.26759    0.84835    0.74272   1.00
C6       0.32823    0.85024    0.70349   1.00
C6       0.40344    1.03308    0.67571   1.00
C6       0.42764    1.02467    0.60725   1.00
H2       0.39059    1.06956    0.62712   1.00
H2       0.36311    1.00994    0.55551   1.00
C6       0.30123    1.01050    0.54878   1.00
C6       0.34472    1.06941    0.54893   1.00
H2       0.28499    1.05419    0.61875   1.00
C6       0.29037    1.03832    0.67836   1.00
C6       0.31987    1.09739    0.64744   1.00
H2       0.29879    0.98433    0.76846   1.00
H2       0.28635    0.94244    0.79590   1.00
H2       0.25460    0.98310    0.79417   1.00
H2       0.19315    0.95132    0.76108   1.00
H2       0.20271    0.90717    0.73678   1.00
H2       0.21949    0.91442    0.78464   1.00
H2       0.26902    0.89429    0.60172   1.00
H2       0.31080    0.88857    0.63032   1.00
H2       0.26966    0.85837    0.63852   1.00
H2       0.20185    0.93720    0.67362   1.00
H2       0.20682    0.91484    0.62808   1.00
H2       0.20747    0.88570    0.67050   1.00
H2       0.24589    0.84242    0.72014   1.00
H2       0.27985    0.82039    0.75208   1.00
H2       0.25294    0.85996    0.76832   1.00
H2       0.31252    0.83053    0.68402   1.00
H2       0.34875    0.86638    0.68568   1.00
H2       0.34549    0.83209    0.72328   1.00
H2       0.41348    1.00356    0.68188   1.00
H2       0.42742    1.05280    0.68309   1.00
H2       0.37951    1.03977    0.69548   1.00
H2       0.45391    1.04043    0.61625   1.00
H2       0.43380    0.99373    0.61074   1.00
H2       0.42386    1.03066    0.57622   1.00
H2       0.30390    1.00860    0.51702   1.00
H2       0.29568    0.98093    0.55935   1.00
H2       0.27570    1.02835    0.55535   1.00
H2       0.37144    1.08338    0.55916   1.00
H2       0.34679    1.06755    0.51712   1.00
H2       0.32004    1.08835    0.55585   1.00
H2       0.31189    1.03506    0.70156   1.00
H2       0.26726    1.05763    0.68881   1.00
H2       0.27716    1.00997    0.67334   1.00
H2       0.29401    1.11431    0.65544   1.00
H2       0.34093    1.10013    0.67122   1.00
H2       0.33220    1.11118    0.62157   1.00
C4       0.41540    1.18584    0.41802   1.00
C4       0.41481    1.14412    0.41759   1.00
C3       0.40089    1.20864    0.44942   1.00
C3       0.39650    1.12116    0.44682   1.00
C3       0.43075    1.20623    0.38509   1.00
C3       0.43357    1.12386    0.38640   1.00
C2       0.41587    1.27012    0.41583   1.00
C2       0.41413    1.05988    0.41417   1.00
C3       0.40090    1.24962    0.44829   1.00
C3       0.39647    1.08019    0.44538   1.00
C3       0.43117    1.24758    0.38483   1.00
C3       0.43176    1.08262    0.38461   1.00
H1       0.39001    1.19615    0.47410   1.00
H1       0.38243    1.13352    0.46990   1.00
C5       0.44574    1.18520    0.35273   1.00
C5       0.45372    1.14480    0.35697   1.00
H1       0.38976    1.26455    0.47175   1.00
H1       0.38306    1.06510    0.46751   1.00
H1       0.44326    1.26180    0.36149   1.00
H1       0.44316    1.06868    0.36082   1.00
O3       0.45442    1.20461    0.31860   1.00
O3       0.47835    1.12599    0.33115   1.00
Si1      0.42178    1.20747    0.28400   1.00
Si1      0.52341    1.11779    0.34418   1.00
C6       0.44741    1.24038    0.25377   1.00
C6       0.41831    1.16098    0.26224   1.00
C6       0.37704    1.22753    0.29980   1.00
C6       0.53809    1.13193    0.39158   1.00
C6       0.52783    1.06698    0.33940   1.00
C6       0.55368    1.13977    0.30893   1.00
C6       0.46528    1.27694    0.27468   1.00
H2       0.47241    1.22291    0.24450   1.00
C6       0.42869    1.25647    0.21517   1.00
H2       0.44693    1.14858    0.26861   1.00
C6       0.38794    1.13134    0.27908   1.00
C6       0.41363    1.15836    0.21688   1.00
H2       0.38658    1.25331    0.31598   1.00
C6       0.34835    1.24272    0.26759   1.00
C6       0.35024    1.20349    0.32823   1.00
C6       0.53308    1.17571    0.40344   1.00
C6       0.52467    1.10725    0.42764   1.00
H2       0.56956    1.12712    0.39059   1.00
H2       0.50994    1.05551    0.36311   1.00
C6       0.51050    1.04878    0.30123   1.00
C6       0.56941    1.04893    0.34472   1.00
H2       0.55419    1.11875    0.28499   1.00
C6       0.53832    1.17836    0.29037   1.00
C6       0.59739    1.14744    0.31987   1.00
H2       0.48433    1.26846    0.29879   1.00
H2       0.44244    1.29590    0.28635   1.00
H2       0.48310    1.29417    0.25460   1.00
H2       0.45132    1.26108    0.19315   1.00
H2       0.40717    1.23678    0.20271   1.00
H2       0.41442    1.28464    0.21949   1.00
H2       0.39429    1.10172    0.26902   1.00
H2       0.38857    1.13032    0.31080   1.00
H2       0.35837    1.13852    0.26966   1.00
H2       0.43720    1.17362    0.20185   1.00
H2       0.41484    1.12808    0.20682   1.00
H2       0.38570    1.17050    0.20747   1.00
H2       0.34242    1.22014    0.24589   1.00
H2       0.32039    1.25208    0.27985   1.00
H2       0.35996    1.26832    0.25294   1.00
H2       0.33053    1.18402    0.31252   1.00
H2       0.36638    1.18568    0.34875   1.00
H2       0.33209    1.22328    0.34549   1.00
H2       0.50356    1.18188    0.41348   1.00
H2       0.55280    1.18309    0.42742   1.00
H2       0.53977    1.19548    0.37951   1.00
H2       0.54043    1.11625    0.45391   1.00
H2       0.49373    1.11074    0.43380   1.00
H2       0.53066    1.07622    0.42386   1.00
H2       0.50860    1.01702    0.30390   1.00
H2       0.48093    1.05935    0.29568   1.00
H2       0.52835    1.05535    0.27570   1.00
H2       0.58338    1.05916    0.37144   1.00
H2       0.56755    1.01712    0.34679   1.00
H2       0.58835    1.05585    0.32004   1.00
H2       0.53506    1.20156    0.31189   1.00
H2       0.55763    1.18881    0.26726   1.00
H2       0.50997    1.17334    0.27716   1.00
H2       0.61431    1.15544    0.29401   1.00
H2       0.60013    1.17122    0.34093   1.00
H2       0.61118    1.12157    0.33220   1.00
C4       0.14416    0.91802    0.41460   1.00
C4       0.18588    0.91759    0.41519   1.00
C3       0.12136    0.94942    0.42911   1.00
C3       0.20884    0.94682    0.43350   1.00
C3       0.12377    0.88509    0.39925   1.00
C3       0.20614    0.88640    0.39643   1.00
C2       0.05988    0.91583    0.41413   1.00
C2       0.27012    0.91417    0.41587   1.00
C3       0.08038    0.94829    0.42910   1.00
C3       0.24981    0.94538    0.43353   1.00
C3       0.08242    0.88483    0.39883   1.00
C3       0.24738    0.88461    0.39824   1.00
H1       0.13385    0.97410    0.43999   1.00
H1       0.19648    0.96990    0.44757   1.00
C5       0.14480    0.85273    0.38426   1.00
C5       0.18520    0.85697    0.37628   1.00
H1       0.06545    0.97175    0.44024   1.00
H1       0.26490    0.96751    0.44694   1.00
H1       0.06820    0.86149    0.38674   1.00
H1       0.26132    0.86082    0.38684   1.00
O3       0.12539    0.81860    0.37558   1.00
O3       0.20401    0.83115    0.35165   1.00
Si1      0.12253    0.78400    0.40822   1.00
Si1      0.21221    0.84418    0.30659   1.00
C6       0.08962    0.75377    0.38259   1.00
C6       0.16902    0.76224    0.41169   1.00
C6       0.10247    0.79980    0.45296   1.00
C6       0.19807    0.89158    0.29191   1.00
C6       0.26302    0.83940    0.30217   1.00
C6       0.19023    0.80893    0.27632   1.00
C6       0.05306    0.77468    0.36472   1.00
H2       0.10709    0.74450    0.35759   1.00
C6       0.07353    0.71517    0.40131   1.00
H2       0.18142    0.76861    0.38307   1.00
C6       0.19866    0.77908    0.44206   1.00
C6       0.17164    0.71688    0.41637   1.00
H2       0.07669    0.81598    0.44342   1.00
C6       0.08728    0.76759    0.48165   1.00
C6       0.12651    0.82823    0.47976   1.00
C6       0.15429    0.90344    0.29692   1.00
C6       0.22275    0.92764    0.30533   1.00
H2       0.20288    0.89059    0.26044   1.00
H2       0.27449    0.86311    0.32006   1.00
C6       0.28122    0.80123    0.31950   1.00
C6       0.28107    0.84472    0.26059   1.00
H2       0.21125    0.78499    0.27581   1.00
C6       0.15164    0.79037    0.29168   1.00
C6       0.18256    0.81987    0.23261   1.00
H2       0.06154    0.79879    0.34567   1.00
H2       0.03410    0.78635    0.38756   1.00
H2       0.03583    0.75460    0.34690   1.00
H2       0.06892    0.69315    0.37868   1.00
H2       0.09322    0.70271    0.42283   1.00
H2       0.04536    0.71949    0.41558   1.00
H2       0.22828    0.76902    0.43571   1.00
H2       0.19968    0.81080    0.44143   1.00
H2       0.19148    0.76966    0.47163   1.00
H2       0.15638    0.70185    0.39280   1.00
H2       0.20192    0.70682    0.41516   1.00
H2       0.15950    0.70747    0.44430   1.00
H2       0.10986    0.74589    0.48758   1.00
H2       0.07792    0.77985    0.50961   1.00
H2       0.06168    0.75294    0.47004   1.00
H2       0.14598    0.81252    0.49947   1.00
H2       0.14432    0.84875    0.46362   1.00
H2       0.10672    0.84549    0.49791   1.00
H2       0.14812    0.91348    0.32644   1.00
H2       0.14691    0.92742    0.27720   1.00
H2       0.13452    0.87951    0.29023   1.00
H2       0.21375    0.95391    0.28957   1.00
H2       0.21926    0.93380    0.33627   1.00
H2       0.25378    0.92386    0.29934   1.00
H2       0.31298    0.80390    0.32140   1.00
H2       0.27065    0.79568    0.34907   1.00
H2       0.27465    0.77570    0.30165   1.00
H2       0.27084    0.87144    0.24662   1.00
H2       0.31288    0.84679    0.26245   1.00
H2       0.27415    0.82004    0.24165   1.00
H2       0.12844    0.81189    0.29494   1.00
H2       0.14119    0.76726    0.27237   1.00
H2       0.15666    0.77716    0.32003   1.00
H2       0.17456    0.79401    0.21569   1.00
H2       0.15878    0.84093    0.22987   1.00
H2       0.20843    0.83220    0.21882   1.00
C4       0.68584    0.91802    0.41540   1.00
C4       0.64412    0.91759    0.41481   1.00
C3       0.70864    0.94942    0.40089   1.00
C3       0.62116    0.94682    0.39650   1.00
C3       0.70623    0.88509    0.43075   1.00
C3       0.62386    0.88640    0.43357   1.00
C2       0.77012    0.91583    0.41587   1.00
C2       0.55988    0.91417    0.41413   1.00
C3       0.74962    0.94829    0.40090   1.00
C3       0.58019    0.94538    0.39647   1.00
C3       0.74758    0.88483    0.43117   1.00
C3       0.58262    0.88461    0.43176   1.00
H1       0.69615    0.97410    0.39001   1.00
H1       0.63352    0.96990    0.38243   1.00
C5       0.68520    0.85273    0.44574   1.00
C5       0.64480    0.85697    0.45372   1.00
H1       0.76455    0.97175    0.38976   1.00
H1       0.56510    0.96751    0.38306   1.00
H1       0.76180    0.86149    0.44326   1.00
H1       0.56868    0.86082    0.44316   1.00
O3       0.70461    0.81860    0.45442   1.00
O3       0.62599    0.83115    0.47835   1.00
Si1      0.70747    0.78400    0.42178   1.00
Si1      0.61779    0.84418    0.52341   1.00
C6       0.74038    0.75377    0.44741   1.00
C6       0.66098    0.76224    0.41831   1.00
C6       0.72753    0.79980    0.37704   1.00
C6       0.63193    0.89158    0.53809   1.00
C6       0.56698    0.83940    0.52783   1.00
C6       0.63977    0.80893    0.55368   1.00
C6       0.77694    0.77468    0.46528   1.00
H2       0.72291    0.74450    0.47241   1.00
C6       0.75647    0.71517    0.42869   1.00
H2       0.64858    0.76861    0.44693   1.00
C6       0.63134    0.77908    0.38794   1.00
C6       0.65836    0.71688    0.41363   1.00
H2       0.75331    0.81598    0.38658   1.00
C6       0.74272    0.76759    0.34835   1.00
C6       0.70349    0.82823    0.35024   1.00
C6       0.67571    0.90344    0.53308   1.00
C6       0.60725    0.92764    0.52467   1.00
H2       0.62712    0.89059    0.56956   1.00
H2       0.55551    0.86311    0.50994   1.00
C6       0.54878    0.80123    0.51050   1.00
C6       0.54893    0.84472    0.56941   1.00
H2       0.61875    0.78499    0.55419   1.00
C6       0.67836    0.79037    0.53832   1.00
C6       0.64744    0.81987    0.59739   1.00
H2       0.76846    0.79879    0.48433   1.00
H2       0.79590    0.78635    0.44244   1.00
H2       0.79417    0.75460    0.48310   1.00
H2       0.76108    0.69315    0.45132   1.00
H2       0.73678    0.70271    0.40717   1.00
H2       0.78464    0.71949    0.41442   1.00
H2       0.60172    0.76902    0.39429   1.00
H2       0.63032    0.81080    0.38857   1.00
H2       0.63852    0.76966    0.35837   1.00
H2       0.67362    0.70185    0.43720   1.00
H2       0.62808    0.70682    0.41484   1.00
H2       0.67050    0.70747    0.38570   1.00
H2       0.72014    0.74589    0.34242   1.00
H2       0.75208    0.77985    0.32039   1.00
H2       0.76832    0.75294    0.35996   1.00
H2       0.68402    0.81252    0.33053   1.00
H2       0.68568    0.84875    0.36638   1.00
H2       0.72328    0.84549    0.33209   1.00
H2       0.68188    0.91348    0.50356   1.00
H2       0.68309    0.92742    0.55280   1.00
H2       0.69548    0.87951    0.53977   1.00
H2       0.61625    0.95391    0.54043   1.00
H2       0.61074    0.93380    0.49373   1.00
H2       0.57622    0.92386    0.53066   1.00
H2       0.51702    0.80390    0.50860   1.00
H2       0.55935    0.79568    0.48093   1.00
H2       0.55535    0.77570    0.52835   1.00
H2       0.55916    0.87144    0.58338   1.00
H2       0.51712    0.84679    0.56755   1.00
H2       0.55585    0.82004    0.58835   1.00
H2       0.70156    0.81189    0.53506   1.00
H2       0.68881    0.76726    0.55763   1.00
H2       0.67334    0.77716    0.50997   1.00
H2       0.65544    0.79401    0.61431   1.00
H2       0.67122    0.84093    0.60013   1.00
H2       0.62157    0.83220    0.61118   1.00
C4       0.41460    0.64416    0.41802   1.00
C4       0.41519    0.68588    0.41759   1.00
C3       0.42911    0.62136    0.44942   1.00
C3       0.43350    0.70884    0.44682   1.00
C3       0.39925    0.62377    0.38509   1.00
C3       0.39643    0.70614    0.38640   1.00
C2       0.41413    0.55988    0.41583   1.00
C2       0.41587    0.77012    0.41417   1.00
C3       0.42910    0.58038    0.44829   1.00
C3       0.43353    0.74981    0.44538   1.00
C3       0.39883    0.58242    0.38483   1.00
C3       0.39824    0.74738    0.38461   1.00
H1       0.43999    0.63385    0.47410   1.00
H1       0.44757    0.69648    0.46990   1.00
C5       0.38426    0.64480    0.35273   1.00
C5       0.37628    0.68520    0.35697   1.00
H1       0.44024    0.56545    0.47175   1.00
H1       0.44694    0.76490    0.46751   1.00
H1       0.38674    0.56820    0.36149   1.00
H1       0.38684    0.76132    0.36082   1.00
O3       0.37558    0.62539    0.31860   1.00
O3       0.35165    0.70401    0.33115   1.00
Si1      0.40822    0.62253    0.28400   1.00
Si1      0.30659    0.71221    0.34418   1.00
C6       0.38259    0.58962    0.25377   1.00
C6       0.41169    0.66902    0.26224   1.00
C6       0.45296    0.60247    0.29980   1.00
C6       0.29191    0.69807    0.39158   1.00
C6       0.30217    0.76302    0.33940   1.00
C6       0.27632    0.69023    0.30893   1.00
C6       0.36472    0.55306    0.27468   1.00
H2       0.35759    0.60709    0.24450   1.00
C6       0.40131    0.57353    0.21517   1.00
H2       0.38307    0.68142    0.26861   1.00
C6       0.44206    0.69866    0.27908   1.00
C6       0.41637    0.67164    0.21688   1.00
H2       0.44342    0.57669    0.31598   1.00
C6       0.48165    0.58728    0.26759   1.00
C6       0.47976    0.62651    0.32823   1.00
C6       0.29692    0.65429    0.40344   1.00
C6       0.30533    0.72275    0.42764   1.00
H2       0.26044    0.70288    0.39059   1.00
H2       0.32006    0.77449    0.36311   1.00
C6       0.31950    0.78122    0.30123   1.00
C6       0.26059    0.78107    0.34472   1.00
H2       0.27581    0.71125    0.28499   1.00
C6       0.29168    0.65164    0.29037   1.00
C6       0.23261    0.68256    0.31987   1.00
H2       0.34567    0.56154    0.29879   1.00
H2       0.38756    0.53410    0.28635   1.00
H2       0.34690    0.53583    0.25460   1.00
H2       0.37868    0.56892    0.19315   1.00
H2       0.42283    0.59322    0.20271   1.00
H2       0.41558    0.54536    0.21949   1.00
H2       0.43571    0.72828    0.26902   1.00
H2       0.44143    0.69968    0.31080   1.00
H2       0.47163    0.69148    0.26966   1.00
H2       0.39280    0.65638    0.20185   1.00
H2       0.41516    0.70192    0.20682   1.00
H2       0.44430    0.65950    0.20747   1.00
H2       0.48758    0.60986    0.24589   1.00
H2       0.50961    0.57792    0.27985   1.00
H2       0.47004    0.56168    0.25294   1.00
H2       0.49947    0.64598    0.31252   1.00
H2       0.46362    0.64432    0.34875   1.00
H2       0.49791    0.60672    0.34549   1.00
H2       0.32644    0.64812    0.41348   1.00
H2       0.27720    0.64691    0.42742   1.00
H2       0.29023    0.63452    0.37951   1.00
H2       0.28957    0.71375    0.45391   1.00
H2       0.33627    0.71926    0.43380   1.00
H2       0.29934    0.75378    0.42386   1.00
H2       0.32140    0.81298    0.30390   1.00
H2       0.34907    0.77065    0.29568   1.00
H2       0.30165    0.77465    0.27570   1.00
H2       0.24662    0.77084    0.37144   1.00
H2       0.26245    0.81288    0.34679   1.00
H2       0.24165    0.77415    0.32004   1.00
H2       0.29494    0.62844    0.31189   1.00
H2       0.27237    0.64119    0.26726   1.00
H2       0.32003    0.65666    0.27716   1.00
H2       0.21569    0.67456    0.29401   1.00
H2       0.22987    0.65878    0.34093   1.00
H2       0.21882    0.70843    0.33220   1.00
C4       0.41802    0.91460    0.14416   1.00
C4       0.41759    0.91519    0.18588   1.00
C3       0.44942    0.92911    0.12136   1.00
C3       0.44682    0.93350    0.20884   1.00
C3       0.38509    0.89925    0.12377   1.00
C3       0.38640    0.89643    0.20614   1.00
C2       0.41583    0.91413    0.05988   1.00
C2       0.41417    0.91587    0.27012   1.00
C3       0.44829    0.92910    0.08038   1.00
C3       0.44538    0.93353    0.24981   1.00
C3       0.38483    0.89883    0.08242   1.00
C3       0.38461    0.89824    0.24738   1.00
H1       0.47410    0.93999    0.13385   1.00
H1       0.46990    0.94757    0.19648   1.00
C5       0.35273    0.88426    0.14480   1.00
C5       0.35697    0.87628    0.18520   1.00
H1       0.47175    0.94024    0.06545   1.00
H1       0.46751    0.94694    0.26490   1.00
H1       0.36149    0.88674    0.06820   1.00
H1       0.36082    0.88684    0.26132   1.00
O3       0.31860    0.87558    0.12539   1.00
O3       0.33115    0.85165    0.20401   1.00
Si1      0.28400    0.90822    0.12253   1.00
Si1      0.34418    0.80659    0.21221   1.00
C6       0.25377    0.88259    0.08962   1.00
C6       0.26224    0.91169    0.16902   1.00
C6       0.29980    0.95296    0.10247   1.00
C6       0.39158    0.79191    0.19807   1.00
C6       0.33940    0.80217    0.26302   1.00
C6       0.30893    0.77632    0.19023   1.00
C6       0.27468    0.86472    0.05306   1.00
H2       0.24450    0.85759    0.10709   1.00
C6       0.21517    0.90131    0.07353   1.00
H2       0.26861    0.88307    0.18142   1.00
C6       0.27908    0.94206    0.19866   1.00
C6       0.21688    0.91637    0.17164   1.00
H2       0.31598    0.94342    0.07669   1.00
C6       0.26759    0.98165    0.08728   1.00
C6       0.32823    0.97976    0.12651   1.00
C6       0.40344    0.79692    0.15429   1.00
C6       0.42764    0.80533    0.22275   1.00
H2       0.39059    0.76044    0.20288   1.00
H2       0.36311    0.82006    0.27449   1.00
C6       0.30123    0.81950    0.28122   1.00
C6       0.34472    0.76059    0.28107   1.00
H2       0.28499    0.77581    0.21125   1.00
C6       0.29037    0.79168    0.15164   1.00
C6       0.31987    0.73261    0.18256   1.00
H2       0.29879    0.84567    0.06154   1.00
H2       0.28635    0.88756    0.03410   1.00
H2       0.25460    0.84690    0.03583   1.00
H2       0.19315    0.87868    0.06892   1.00
H2       0.20271    0.92283    0.09322   1.00
H2       0.21949    0.91558    0.04536   1.00
H2       0.26902    0.93571    0.22828   1.00
H2       0.31080    0.94143    0.19968   1.00
H2       0.26966    0.97163    0.19148   1.00
H2       0.20185    0.89280    0.15638   1.00
H2       0.20682    0.91516    0.20192   1.00
H2       0.20747    0.94430    0.15950   1.00
H2       0.24589    0.98758    0.10986   1.00
H2       0.27985    1.00961    0.07792   1.00
H2       0.25294    0.97004    0.06168   1.00
H2       0.31252    0.99947    0.14598   1.00
H2       0.34875    0.96362    0.14432   1.00
H2       0.34549    0.99791    0.10672   1.00
H2       0.41348    0.82644    0.14812   1.00
H2       0.42742    0.77720    0.14691   1.00
H2       0.37951    0.79023    0.13452   1.00
H2       0.45391    0.78957    0.21375   1.00
H2       0.43380    0.83627    0.21926   1.00
H2       0.42386    0.79934    0.25378   1.00
H2       0.30390    0.82140    0.31298   1.00
H2       0.29568    0.84907    0.27065   1.00
H2       0.27570    0.80165    0.27465   1.00
H2       0.37144    0.74662    0.27084   1.00
H2       0.34679    0.76245    0.31288   1.00
H2       0.32004    0.74165    0.27415   1.00
H2       0.31189    0.79494    0.12844   1.00
H2       0.26726    0.77237    0.14119   1.00
H2       0.27716    0.82003    0.15666   1.00
H2       0.29401    0.71569    0.17456   1.00
H2       0.34093    0.72987    0.15878   1.00
H2       0.33220    0.71882    0.20843   1.00
C4       0.91802    0.41540    0.68584   1.00
C4       0.91759    0.41481    0.64412   1.00
C3       0.94942    0.40089    0.70864   1.00
C3       0.94682    0.39650    0.62116   1.00
C3       0.88509    0.43075    0.70623   1.00
C3       0.88640    0.43357    0.62386   1.00
C2       0.91583    0.41587    0.77012   1.00
C2       0.91417    0.41413    0.55988   1.00
C3       0.94829    0.40090    0.74962   1.00
C3       0.94538    0.39647    0.58019   1.00
C3       0.88483    0.43117    0.74758   1.00
C3       0.88461    0.43176    0.58262   1.00
H1       0.97410    0.39001    0.69615   1.00
H1       0.96990    0.38243    0.63352   1.00
C5       0.85273    0.44574    0.68520   1.00
C5       0.85697    0.45372    0.64480   1.00
H1       0.97175    0.38976    0.76455   1.00
H1       0.96751    0.38306    0.56510   1.00
H1       0.86149    0.44326    0.76180   1.00
H1       0.86082    0.44316    0.56868   1.00
O3       0.81860    0.45442    0.70461   1.00
O3       0.83115    0.47835    0.62599   1.00
Si1      0.78400    0.42178    0.70747   1.00
Si1      0.84418    0.52341    0.61779   1.00
C6       0.75377    0.44741    0.74038   1.00
C6       0.76224    0.41831    0.66098   1.00
C6       0.79980    0.37704    0.72753   1.00
C6       0.89158    0.53809    0.63193   1.00
C6       0.83940    0.52783    0.56698   1.00
C6       0.80893    0.55368    0.63977   1.00
C6       0.77468    0.46528    0.77694   1.00
H2       0.74450    0.47241    0.72291   1.00
C6       0.71517    0.42869    0.75647   1.00
H2       0.76861    0.44693    0.64858   1.00
C6       0.77908    0.38794    0.63134   1.00
C6       0.71688    0.41363    0.65836   1.00
H2       0.81598    0.38658    0.75331   1.00
C6       0.76759    0.34835    0.74272   1.00
C6       0.82823    0.35024    0.70349   1.00
C6       0.90344    0.53308    0.67571   1.00
C6       0.92764    0.52467    0.60725   1.00
H2       0.89059    0.56956    0.62712   1.00
H2       0.86311    0.50994    0.55551   1.00
C6       0.80123    0.51050    0.54878   1.00
C6       0.84472    0.56941    0.54893   1.00
H2       0.78499    0.55419    0.61875   1.00
C6       0.79037    0.53832    0.67836   1.00
C6       0.81987    0.59739    0.64744   1.00
H2       0.79879    0.48433    0.76846   1.00
H2       0.78635    0.44244    0.79590   1.00
H2       0.75460    0.48310    0.79417   1.00
H2       0.69315    0.45132    0.76108   1.00
H2       0.70271    0.40717    0.73678   1.00
H2       0.71949    0.41442    0.78464   1.00
H2       0.76902    0.39429    0.60172   1.00
H2       0.81080    0.38857    0.63032   1.00
H2       0.76966    0.35837    0.63852   1.00
H2       0.70185    0.43720    0.67362   1.00
H2       0.70682    0.41484    0.62808   1.00
H2       0.70747    0.38570    0.67050   1.00
H2       0.74589    0.34242    0.72014   1.00
H2       0.77985    0.32039    0.75208   1.00
H2       0.75294    0.35996    0.76832   1.00
H2       0.81252    0.33053    0.68402   1.00
H2       0.84875    0.36638    0.68568   1.00
H2       0.84549    0.33209    0.72328   1.00
H2       0.91348    0.50356    0.68188   1.00
H2       0.92742    0.55280    0.68309   1.00
H2       0.87951    0.53977    0.69548   1.00
H2       0.95391    0.54043    0.61625   1.00
H2       0.93380    0.49373    0.61074   1.00
H2       0.92386    0.53066    0.57622   1.00
H2       0.80390    0.50860    0.51702   1.00
H2       0.79568    0.48093    0.55935   1.00
H2       0.77570    0.52835    0.55535   1.00
H2       0.87144    0.58338    0.55916   1.00
H2       0.84679    0.56755    0.51712   1.00
H2       0.82004    0.58835    0.55585   1.00
H2       0.81189    0.53506    0.70156   1.00
H2       0.76726    0.55763    0.68881   1.00
H2       0.77716    0.50997    0.67334   1.00
H2       0.79401    0.61431    0.65544   1.00
H2       0.84093    0.60013    0.67122   1.00
H2       0.83220    0.61118    0.62157   1.00
C4       0.91540    0.68584    0.41802   1.00
C4       0.91481    0.64412    0.41759   1.00
C3       0.90089    0.70864    0.44942   1.00
C3       0.89650    0.62116    0.44682   1.00
C3       0.93075    0.70623    0.38509   1.00
C3       0.93357    0.62386    0.38640   1.00
C2       0.91587    0.77012    0.41583   1.00
C2       0.91413    0.55988    0.41417   1.00
C3       0.90090    0.74962    0.44829   1.00
C3       0.89647    0.58019    0.44538   1.00
C3       0.93117    0.74758    0.38483   1.00
C3       0.93176    0.58262    0.38461   1.00
H1       0.89001    0.69615    0.47410   1.00
H1       0.88243    0.63352    0.46990   1.00
C5       0.94574    0.68520    0.35273   1.00
C5       0.95372    0.64480    0.35697   1.00
H1       0.88976    0.76455    0.47175   1.00
H1       0.88306    0.56510    0.46751   1.00
H1       0.94326    0.76180    0.36149   1.00
H1       0.94316    0.56868    0.36082   1.00
O3       0.95442    0.70461    0.31860   1.00
O3       0.97835    0.62599    0.33115   1.00
Si1      0.92178    0.70747    0.28400   1.00
Si1      1.02341    0.61779    0.34418   1.00
C6       0.94741    0.74038    0.25377   1.00
C6       0.91831    0.66098    0.26224   1.00
C6       0.87704    0.72753    0.29980   1.00
C6       1.03809    0.63193    0.39158   1.00
C6       1.02783    0.56698    0.33940   1.00
C6       1.05368    0.63977    0.30893   1.00
C6       0.96528    0.77694    0.27468   1.00
H2       0.97241    0.72291    0.24450   1.00
C6       0.92869    0.75647    0.21517   1.00
H2       0.94693    0.64858    0.26861   1.00
C6       0.88794    0.63134    0.27908   1.00
C6       0.91363    0.65836    0.21688   1.00
H2       0.88658    0.75331    0.31598   1.00
C6       0.84835    0.74272    0.26759   1.00
C6       0.85024    0.70349    0.32823   1.00
C6       1.03308    0.67571    0.40344   1.00
C6       1.02467    0.60725    0.42764   1.00
H2       1.06956    0.62712    0.39059   1.00
H2       1.00994    0.55551    0.36311   1.00
C6       1.01050    0.54878    0.30123   1.00
C6       1.06941    0.54893    0.34472   1.00
H2       1.05419    0.61875    0.28499   1.00
C6       1.03832    0.67836    0.29037   1.00
C6       1.09739    0.64744    0.31987   1.00
H2       0.98433    0.76846    0.29879   1.00
H2       0.94244    0.79590    0.28635   1.00
H2       0.98310    0.79417    0.25460   1.00
H2       0.95132    0.76108    0.19315   1.00
H2       0.90717    0.73678    0.20271   1.00
H2       0.91442    0.78464    0.21949   1.00
H2       0.89429    0.60172    0.26902   1.00
H2       0.88857    0.63032    0.31080   1.00
H2       0.85837    0.63852    0.26966   1.00
H2       0.93720    0.67362    0.20185   1.00
H2       0.91484    0.62808    0.20682   1.00
H2       0.88570    0.67050    0.20747   1.00
H2       0.84242    0.72014    0.24589   1.00
H2       0.82039    0.75208    0.27985   1.00
H2       0.85996    0.76832    0.25294   1.00
H2       0.83053    0.68402    0.31252   1.00
H2       0.86638    0.68568    0.34875   1.00
H2       0.83209    0.72328    0.34549   1.00
H2       1.00356    0.68188    0.41348   1.00
H2       1.05280    0.68309    0.42742   1.00
H2       1.03977    0.69548    0.37951   1.00
H2       1.04043    0.61625    0.45391   1.00
H2       0.99373    0.61074    0.43380   1.00
H2       1.03066    0.57622    0.42386   1.00
H2       1.00860    0.51702    0.30390   1.00
H2       0.98093    0.55935    0.29568   1.00
H2       1.02835    0.55535    0.27570   1.00
H2       1.08338    0.55916    0.37144   1.00
H2       1.06755    0.51712    0.34679   1.00
H2       1.08835    0.55585    0.32004   1.00
H2       1.03506    0.70156    0.31189   1.00
H2       1.05763    0.68881    0.26726   1.00
H2       1.00997    0.67334    0.27716   1.00
H2       1.11431    0.65544    0.29401   1.00
H2       1.10013    0.67122    0.34093   1.00
H2       1.11118    0.62157    0.33220   1.00
C4       0.64416    0.41802    0.41460   1.00
C4       0.68588    0.41759    0.41519   1.00
C3       0.62136    0.44942    0.42911   1.00
C3       0.70884    0.44682    0.43350   1.00
C3       0.62377    0.38509    0.39925   1.00
C3       0.70614    0.38640    0.39643   1.00
C2       0.55988    0.41583    0.41413   1.00
C2       0.77012    0.41417    0.41587   1.00
C3       0.58038    0.44829    0.42910   1.00
C3       0.74981    0.44538    0.43353   1.00
C3       0.58242    0.38483    0.39883   1.00
C3       0.74738    0.38461    0.39824   1.00
H1       0.63385    0.47410    0.43999   1.00
H1       0.69648    0.46990    0.44757   1.00
C5       0.64480    0.35273    0.38426   1.00
C5       0.68520    0.35697    0.37628   1.00
H1       0.56545    0.47175    0.44024   1.00
H1       0.76490    0.46751    0.44694   1.00
H1       0.56820    0.36149    0.38674   1.00
H1       0.76132    0.36082    0.38684   1.00
O3       0.62539    0.31860    0.37558   1.00
O3       0.70401    0.33115    0.35165   1.00
Si1      0.62253    0.28400    0.40822   1.00
Si1      0.71221    0.34418    0.30659   1.00
C6       0.58962    0.25377    0.38259   1.00
C6       0.66902    0.26224    0.41169   1.00
C6       0.60247    0.29980    0.45296   1.00
C6       0.69807    0.39158    0.29191   1.00
C6       0.76302    0.33940    0.30217   1.00
C6       0.69023    0.30893    0.27632   1.00
C6       0.55306    0.27468    0.36472   1.00
H2       0.60709    0.24450    0.35759   1.00
C6       0.57353    0.21517    0.40131   1.00
H2       0.68142    0.26861    0.38307   1.00
C6       0.69866    0.27908    0.44206   1.00
C6       0.67164    0.21688    0.41637   1.00
H2       0.57669    0.31598    0.44342   1.00
C6       0.58728    0.26759    0.48165   1.00
C6       0.62651    0.32823    0.47976   1.00
C6       0.65429    0.40344    0.29692   1.00
C6       0.72275    0.42764    0.30533   1.00
H2       0.70288    0.39059    0.26044   1.00
H2       0.77449    0.36311    0.32006   1.00
C6       0.78122    0.30123    0.31950   1.00
C6       0.78107    0.34472    0.26059   1.00
H2       0.71125    0.28499    0.27581   1.00
C6       0.65164    0.29037    0.29168   1.00
C6       0.68256    0.31987    0.23261   1.00
H2       0.56154    0.29879    0.34567   1.00
H2       0.53410    0.28635    0.38756   1.00
H2       0.53583    0.25460    0.34690   1.00
H2       0.56892    0.19315    0.37868   1.00
H2       0.59322    0.20271    0.42283   1.00
H2       0.54536    0.21949    0.41558   1.00
H2       0.72828    0.26902    0.43571   1.00
H2       0.69968    0.31080    0.44143   1.00
H2       0.69148    0.26966    0.47163   1.00
H2       0.65638    0.20185    0.39280   1.00
H2       0.70192    0.20682    0.41516   1.00
H2       0.65950    0.20747    0.44430   1.00
H2       0.60986    0.24589    0.48758   1.00
H2       0.57792    0.27985    0.50961   1.00
H2       0.56168    0.25294    0.47004   1.00
H2       0.64598    0.31252    0.49947   1.00
H2       0.64432    0.34875    0.46362   1.00
H2       0.60672    0.34549    0.49791   1.00
H2       0.64812    0.41348    0.32644   1.00
H2       0.64691    0.42742    0.27720   1.00
H2       0.63452    0.37951    0.29023   1.00
H2       0.71375    0.45391    0.28957   1.00
H2       0.71926    0.43380    0.33627   1.00
H2       0.75378    0.42386    0.29934   1.00
H2       0.81298    0.30390    0.32140   1.00
H2       0.77065    0.29568    0.34907   1.00
H2       0.77465    0.27570    0.30165   1.00
H2       0.77084    0.37144    0.24662   1.00
H2       0.81288    0.34679    0.26245   1.00
H2       0.77415    0.32004    0.24165   1.00
H2       0.62844    0.31189    0.29494   1.00
H2       0.64119    0.26726    0.27237   1.00
H2       0.65666    0.27716    0.32003   1.00
H2       0.67456    0.29401    0.21569   1.00
H2       0.65878    0.34093    0.22987   1.00
H2       0.70843    0.33220    0.21882   1.00
C4       1.18584    0.41802    0.41540   1.00
C4       1.14412    0.41759    0.41481   1.00
C3       1.20864    0.44942    0.40089   1.00
C3       1.12116    0.44682    0.39650   1.00
C3       1.20623    0.38509    0.43075   1.00
C3       1.12386    0.38640    0.43357   1.00
C2       1.27012    0.41583    0.41587   1.00
C2       1.05988    0.41417    0.41413   1.00
C3       1.24962    0.44829    0.40090   1.00
C3       1.08019    0.44538    0.39647   1.00
C3       1.24758    0.38483    0.43117   1.00
C3       1.08262    0.38461    0.43176   1.00
H1       1.19615    0.47410    0.39001   1.00
H1       1.13352    0.46990    0.38243   1.00
C5       1.18520    0.35273    0.44574   1.00
C5       1.14480    0.35697    0.45372   1.00
H1       1.26455    0.47175    0.38976   1.00
H1       1.06510    0.46751    0.38306   1.00
H1       1.26180    0.36149    0.44326   1.00
H1       1.06868    0.36082    0.44316   1.00
O3       1.20461    0.31860    0.45442   1.00
O3       1.12599    0.33115    0.47835   1.00
Si1      1.20747    0.28400    0.42178   1.00
Si1      1.11779    0.34418    0.52341   1.00
C6       1.24038    0.25377    0.44741   1.00
C6       1.16098    0.26224    0.41831   1.00
C6       1.22753    0.29980    0.37704   1.00
C6       1.13193    0.39158    0.53809   1.00
C6       1.06698    0.33940    0.52783   1.00
C6       1.13977    0.30893    0.55368   1.00
C6       1.27694    0.27468    0.46528   1.00
H2       1.22291    0.24450    0.47241   1.00
C6       1.25647    0.21517    0.42869   1.00
H2       1.14858    0.26861    0.44693   1.00
C6       1.13134    0.27908    0.38794   1.00
C6       1.15836    0.21688    0.41363   1.00
H2       1.25331    0.31598    0.38658   1.00
C6       1.24272    0.26759    0.34835   1.00
C6       1.20349    0.32823    0.35024   1.00
C6       1.17571    0.40344    0.53308   1.00
C6       1.10725    0.42764    0.52467   1.00
H2       1.12712    0.39059    0.56956   1.00
H2       1.05551    0.36311    0.50994   1.00
C6       1.04878    0.30123    0.51050   1.00
C6       1.04893    0.34472    0.56941   1.00
H2       1.11875    0.28499    0.55419   1.00
C6       1.17836    0.29037    0.53832   1.00
C6       1.14744    0.31987    0.59739   1.00
H2       1.26846    0.29879    0.48433   1.00
H2       1.29590    0.28635    0.44244   1.00
H2       1.29417    0.25460    0.48310   1.00
H2       1.26108    0.19315    0.45132   1.00
H2       1.23678    0.20271    0.40717   1.00
H2       1.28464    0.21949    0.41442   1.00
H2       1.10172    0.26902    0.39429   1.00
H2       1.13032    0.31080    0.38857   1.00
H2       1.13852    0.26966    0.35837   1.00
H2       1.17362    0.20185    0.43720   1.00
H2       1.12808    0.20682    0.41484   1.00
H2       1.17050    0.20747    0.38570   1.00
H2       1.22014    0.24589    0.34242   1.00
H2       1.25208    0.27985    0.32039   1.00
H2       1.26832    0.25294    0.35996   1.00
H2       1.18402    0.31252    0.33053   1.00
H2       1.18568    0.34875    0.36638   1.00
H2       1.22328    0.34549    0.33209   1.00
H2       1.18188    0.41348    0.50356   1.00
H2       1.18309    0.42742    0.55280   1.00
H2       1.19548    0.37951    0.53977   1.00
H2       1.11625    0.45391    0.54043   1.00
H2       1.11074    0.43380    0.49373   1.00
H2       1.07622    0.42386    0.53066   1.00
H2       1.01702    0.30390    0.50860   1.00
H2       1.05935    0.29568    0.48093   1.00
H2       1.05535    0.27570    0.52835   1.00
H2       1.05916    0.37144    0.58338   1.00
H2       1.01712    0.34679    0.56755   1.00
H2       1.05585    0.32004    0.58835   1.00
H2       1.20156    0.31189    0.53506   1.00
H2       1.18881    0.26726    0.55763   1.00
H2       1.17334    0.27716    0.50997   1.00
H2       1.15544    0.29401    0.61431   1.00
H2       1.17122    0.34093    0.60013   1.00
H2       1.12157    0.33220    0.61118   1.00
C4       0.91460    0.14416    0.41802   1.00
C4       0.91519    0.18588    0.41759   1.00
C3       0.92911    0.12136    0.44942   1.00
C3       0.93350    0.20884    0.44682   1.00
C3       0.89925    0.12377    0.38509   1.00
C3       0.89643    0.20614    0.38640   1.00
C2       0.91413    0.05988    0.41583   1.00
C2       0.91587    0.27012    0.41417   1.00
C3       0.92910    0.08038    0.44829   1.00
C3       0.93353    0.24981    0.44538   1.00
C3       0.89883    0.08242    0.38483   1.00
C3       0.89824    0.24738    0.38461   1.00
H1       0.93999    0.13385    0.47410   1.00
H1       0.94757    0.19648    0.46990   1.00
C5       0.88426    0.14480    0.35273   1.00
C5       0.87628    0.18520    0.35697   1.00
H1       0.94024    0.06545    0.47175   1.00
H1       0.94694    0.26490    0.46751   1.00
H1       0.88674    0.06820    0.36149   1.00
H1       0.88684    0.26132    0.36082   1.00
O3       0.87558    0.12539    0.31860   1.00
O3       0.85165    0.20401    0.33115   1.00
Si1      0.90822    0.12253    0.28400   1.00
Si1      0.80659    0.21221    0.34418   1.00
C6       0.88259    0.08962    0.25377   1.00
C6       0.91169    0.16902    0.26224   1.00
C6       0.95296    0.10247    0.29980   1.00
C6       0.79191    0.19807    0.39158   1.00
C6       0.80217    0.26302    0.33940   1.00
C6       0.77632    0.19023    0.30893   1.00
C6       0.86472    0.05306    0.27468   1.00
H2       0.85759    0.10709    0.24450   1.00
C6       0.90131    0.07353    0.21517   1.00
H2       0.88307    0.18142    0.26861   1.00
C6       0.94206    0.19866    0.27908   1.00
C6       0.91637    0.17164    0.21688   1.00
H2       0.94342    0.07669    0.31598   1.00
C6       0.98165    0.08728    0.26759   1.00
C6       0.97976    0.12651    0.32823   1.00
C6       0.79692    0.15429    0.40344   1.00
C6       0.80533    0.22275    0.42764   1.00
H2       0.76044    0.20288    0.39059   1.00
H2       0.82006    0.27449    0.36311   1.00
C6       0.81950    0.28122    0.30123   1.00
C6       0.76059    0.28107    0.34472   1.00
H2       0.77581    0.21125    0.28499   1.00
C6       0.79168    0.15164    0.29037   1.00
C6       0.73261    0.18256    0.31987   1.00
H2       0.84567    0.06154    0.29879   1.00
H2       0.88756    0.03410    0.28635   1.00
H2       0.84690    0.03583    0.25460   1.00
H2       0.87868    0.06892    0.19315   1.00
H2       0.92283    0.09322    0.20271   1.00
H2       0.91558    0.04536    0.21949   1.00
H2       0.93571    0.22828    0.26902   1.00
H2       0.94143    0.19968    0.31080   1.00
H2       0.97163    0.19148    0.26966   1.00
H2       0.89280    0.15638    0.20185   1.00
H2       0.91516    0.20192    0.20682   1.00
H2       0.94430    0.15950    0.20747   1.00
H2       0.98758    0.10986    0.24589   1.00
H2       1.00961    0.07792    0.27985   1.00
H2       0.97004    0.06168    0.25294   1.00
H2       0.99947    0.14598    0.31252   1.00
H2       0.96362    0.14432    0.34875   1.00
H2       0.99791    0.10672    0.34549   1.00
H2       0.82644    0.14812    0.41348   1.00
H2       0.77720    0.14691    0.42742   1.00
H2       0.79023    0.13452    0.37951   1.00
H2       0.78957    0.21375    0.45391   1.00
H2       0.83627    0.21926    0.43380   1.00
H2       0.79934    0.25378    0.42386   1.00
H2       0.82140    0.31298    0.30390   1.00
H2       0.84907    0.27065    0.29568   1.00
H2       0.80165    0.27465    0.27570   1.00
H2       0.74662    0.27084    0.37144   1.00
H2       0.76245    0.31288    0.34679   1.00
H2       0.74165    0.27415    0.32004   1.00
H2       0.79494    0.12844    0.31189   1.00
H2       0.77237    0.14119    0.26726   1.00
H2       0.82003    0.15666    0.27716   1.00
H2       0.71569    0.17456    0.29401   1.00
H2       0.72987    0.15878    0.34093   1.00
H2       0.71882    0.20843    0.33220   1.00
C4       0.91802    0.41460    0.14416   1.00
C4       0.91759    0.41519    0.18588   1.00
C3       0.94942    0.42911    0.12136   1.00
C3       0.94682    0.43350    0.20884   1.00
C3       0.88509    0.39925    0.12377   1.00
C3       0.88640    0.39643    0.20614   1.00
C2       0.91583    0.41413    0.05988   1.00
C2       0.91417    0.41587    0.27012   1.00
C3       0.94829    0.42910    0.08038   1.00
C3       0.94538    0.43353    0.24981   1.00
C3       0.88483    0.39883    0.08242   1.00
C3       0.88461    0.39824    0.24738   1.00
H1       0.97410    0.43999    0.13385   1.00
H1       0.96990    0.44757    0.19648   1.00
C5       0.85273    0.38426    0.14480   1.00
C5       0.85697    0.37628    0.18520   1.00
H1       0.97175    0.44024    0.06545   1.00
H1       0.96751    0.44694    0.26490   1.00
H1       0.86149    0.38674    0.06820   1.00
H1       0.86082    0.38684    0.26132   1.00
O3       0.81860    0.37558    0.12539   1.00
O3       0.83115    0.35165    0.20401   1.00
Si1      0.78400    0.40822    0.12253   1.00
Si1      0.84418    0.30659    0.21221   1.00
C6       0.75377    0.38259    0.08962   1.00
C6       0.76224    0.41169    0.16902   1.00
C6       0.79980    0.45296    0.10247   1.00
C6       0.89158    0.29191    0.19807   1.00
C6       0.83940    0.30217    0.26302   1.00
C6       0.80893    0.27632    0.19023   1.00
C6       0.77468    0.36472    0.05306   1.00
H2       0.74450    0.35759    0.10709   1.00
C6       0.71517    0.40131    0.07353   1.00
H2       0.76861    0.38307    0.18142   1.00
C6       0.77908    0.44206    0.19866   1.00
C6       0.71688    0.41637    0.17164   1.00
H2       0.81598    0.44342    0.07669   1.00
C6       0.76759    0.48165    0.08728   1.00
C6       0.82823    0.47976    0.12651   1.00
C6       0.90344    0.29692    0.15429   1.00
C6       0.92764    0.30533    0.22275   1.00
H2       0.89059    0.26044    0.20288   1.00
H2       0.86311    0.32006    0.27449   1.00
C6       0.80123    0.31950    0.28122   1.00
C6       0.84472    0.26059    0.28107   1.00
H2       0.78499    0.27581    0.21125   1.00
C6       0.79037    0.29168    0.15164   1.00
C6       0.81987    0.23261    0.18256   1.00
H2       0.79879    0.34567    0.06154   1.00
H2       0.78635    0.38756    0.03410   1.00
H2       0.75460    0.34690    0.03583   1.00
H2       0.69315    0.37868    0.06892   1.00
H2       0.70271    0.42283    0.09322   1.00
H2       0.71949    0.41558    0.04536   1.00
H2       0.76902    0.43571    0.22828   1.00
H2       0.81080    0.44143    0.19968   1.00
H2       0.76966    0.47163    0.19148   1.00
H2       0.70185    0.39280    0.15638   1.00
H2       0.70682    0.41516    0.20192   1.00
H2       0.70747    0.44430    0.15950   1.00
H2       0.74589    0.48758    0.10986   1.00
H2       0.77985    0.50961    0.07792   1.00
H2       0.75294    0.47004    0.06168   1.00
H2       0.81252    0.49947    0.14598   1.00
H2       0.84875    0.46362    0.14432   1.00
H2       0.84549    0.49791    0.10672   1.00
H2       0.91348    0.32644    0.14812   1.00
H2       0.92742    0.27720    0.14691   1.00
H2       0.87951    0.29023    0.13452   1.00
H2       0.95391    0.28957    0.21375   1.00
H2       0.93380    0.33627    0.21926   1.00
H2       0.92386    0.29934    0.25378   1.00
H2       0.80390    0.32140    0.31298   1.00
H2       0.79568    0.34907    0.27065   1.00
H2       0.77570    0.30165    0.27465   1.00
H2       0.87144    0.24662    0.27084   1.00
H2       0.84679    0.26245    0.31288   1.00
H2       0.82004    0.24165    0.27415   1.00
H2       0.81189    0.29494    0.12844   1.00
H2       0.76726    0.27237    0.14119   1.00
H2       0.77716    0.32003    0.15666   1.00
H2       0.79401    0.21569    0.17456   1.00
H2       0.84093    0.22987    0.15878   1.00
H2       0.83220    0.21882    0.20843   1.00
