data_IRMOF10_SG202_interpen_Ligand4cp_label_u.

_audit_creation_method             'generated by an auxiliary program of Tobunporous'

_symmetry_space_group_name_H-M     'P 1'
_symmetry_Int_Tables_number        1
_symmetry_cell_setting             triclinic

_cell_length_a                    34.2800
_cell_length_b                    34.2800
_cell_length_c                    34.2800
_cell_angle_alpha                 90.0000
_cell_angle_beta                  90.0000
_cell_angle_gamma                 90.0000

loop_
_atom_site_label
_atom_site_fract_x
_atom_site_fract_y
_atom_site_fract_z
_atom_site_occupancy
O1       0.75000    0.75000    0.75000   1.00
Zn1      0.71720    0.78280    0.78280   1.00
Zn1      0.78280    0.71720    0.78280   1.00
Zn1      0.78280    0.78280    0.71720   1.00
Zn1      0.71720    0.71720    0.71720   1.00
O2       0.72650    0.77350    0.83820   1.00
O2       0.72650    0.83820    0.77350   1.00
O2       0.66180    0.77350    0.77350   1.00
O2       0.77350    0.72650    0.83820   1.00
O2       0.83820    0.72650    0.77350   1.00
O2       0.77350    0.66180    0.77350   1.00
O2       0.77350    0.83820    0.72650   1.00
O2       0.83820    0.77350    0.72650   1.00
O2       0.77350    0.77350    0.66180   1.00
O2       0.66180    0.72650    0.72650   1.00
O2       0.72650    0.66180    0.72650   1.00
O2       0.72650    0.72650    0.66180   1.00
C1       0.75000    0.75000    0.85520   1.00
C1       0.75000    0.85520    0.75000   1.00
C1       0.64480    0.75000    0.75000   1.00
C1       0.85520    0.75000    0.75000   1.00
C1       0.75000    0.64480    0.75000   1.00
C1       0.75000    0.75000    0.64480   1.00
O1       0.25000    0.25000    0.75000   1.00
Zn1      0.21720    0.28280    0.78280   1.00
Zn1      0.28280    0.21720    0.78280   1.00
Zn1      0.28280    0.28280    0.71720   1.00
Zn1      0.21720    0.21720    0.71720   1.00
O2       0.22650    0.27350    0.83820   1.00
O2       0.22650    0.33820    0.77350   1.00
O2       0.16180    0.27350    0.77350   1.00
O2       0.27350    0.22650    0.83820   1.00
O2       0.33820    0.22650    0.77350   1.00
O2       0.27350    0.16180    0.77350   1.00
O2       0.27350    0.33820    0.72650   1.00
O2       0.33820    0.27350    0.72650   1.00
O2       0.27350    0.27350    0.66180   1.00
O2       0.16180    0.22650    0.72650   1.00
O2       0.22650    0.16180    0.72650   1.00
O2       0.22650    0.22650    0.66180   1.00
C1       0.25000    0.25000    0.85520   1.00
C1       0.25000    0.35520    0.75000   1.00
C1       0.14480    0.25000    0.75000   1.00
C1       0.35520    0.25000    0.75000   1.00
C1       0.25000    0.14480    0.75000   1.00
C1       0.25000    0.25000    0.64480   1.00
O1       0.25000    0.75000    0.25000   1.00
Zn1      0.21720    0.78280    0.28280   1.00
Zn1      0.28280    0.71720    0.28280   1.00
Zn1      0.28280    0.78280    0.21720   1.00
Zn1      0.21720    0.71720    0.21720   1.00
O2       0.22650    0.77350    0.33820   1.00
O2       0.22650    0.83820    0.27350   1.00
O2       0.16180    0.77350    0.27350   1.00
O2       0.27350    0.72650    0.33820   1.00
O2       0.33820    0.72650    0.27350   1.00
O2       0.27350    0.66180    0.27350   1.00
O2       0.27350    0.83820    0.22650   1.00
O2       0.33820    0.77350    0.22650   1.00
O2       0.27350    0.77350    0.16180   1.00
O2       0.16180    0.72650    0.22650   1.00
O2       0.22650    0.66180    0.22650   1.00
O2       0.22650    0.72650    0.16180   1.00
C1       0.25000    0.75000    0.35520   1.00
C1       0.25000    0.85520    0.25000   1.00
C1       0.14480    0.75000    0.25000   1.00
C1       0.35520    0.75000    0.25000   1.00
C1       0.25000    0.64480    0.25000   1.00
C1       0.25000    0.75000    0.14480   1.00
O1       0.75000    0.25000    0.25000   1.00
Zn1      0.71720    0.28280    0.28280   1.00
Zn1      0.78280    0.21720    0.28280   1.00
Zn1      0.78280    0.28280    0.21720   1.00
Zn1      0.71720    0.21720    0.21720   1.00
O2       0.72650    0.27350    0.33820   1.00
O2       0.72650    0.33820    0.27350   1.00
O2       0.66180    0.27350    0.27350   1.00
O2       0.77350    0.22650    0.33820   1.00
O2       0.83820    0.22650    0.27350   1.00
O2       0.77350    0.16180    0.27350   1.00
O2       0.77350    0.33820    0.22650   1.00
O2       0.83820    0.27350    0.22650   1.00
O2       0.77350    0.27350    0.16180   1.00
O2       0.66180    0.22650    0.22650   1.00
O2       0.72650    0.16180    0.22650   1.00
O2       0.72650    0.22650    0.16180   1.00
C1       0.75000    0.25000    0.35520   1.00
C1       0.75000    0.35520    0.25000   1.00
C1       0.64480    0.25000    0.25000   1.00
C1       0.85520    0.25000    0.25000   1.00
C1       0.75000    0.14480    0.25000   1.00
C1       0.75000    0.25000    0.14480   1.00
O1       0.25000    0.25000    0.25000   1.00
Zn1      0.28280    0.21720    0.21720   1.00
Zn1      0.21720    0.28280    0.21720   1.00
Zn1      0.21720    0.21720    0.28280   1.00
Zn1      0.28280    0.28280    0.28280   1.00
O2       0.27350    0.22650    0.16180   1.00
O2       0.27350    0.16180    0.22650   1.00
O2       0.33820    0.22650    0.22650   1.00
O2       0.22650    0.27350    0.16180   1.00
O2       0.16180    0.27350    0.22650   1.00
O2       0.22650    0.33820    0.22650   1.00
O2       0.22650    0.16180    0.27350   1.00
O2       0.16180    0.22650    0.27350   1.00
O2       0.22650    0.22650    0.33820   1.00
O2       0.33820    0.27350    0.27350   1.00
O2       0.27350    0.33820    0.27350   1.00
O2       0.27350    0.27350    0.33820   1.00
C1       0.25000    0.25000    0.14480   1.00
C1       0.25000    0.14480    0.25000   1.00
C1       0.35520    0.25000    0.25000   1.00
C1       0.14480    0.25000    0.25000   1.00
C1       0.25000    0.35520    0.25000   1.00
C1       0.25000    0.25000    0.35520   1.00
O1       0.75000    0.75000    0.25000   1.00
Zn1      0.78280    0.71720    0.21720   1.00
Zn1      0.71720    0.78280    0.21720   1.00
Zn1      0.71720    0.71720    0.28280   1.00
Zn1      0.78280    0.78280    0.28280   1.00
O2       0.77350    0.72650    0.16180   1.00
O2       0.77350    0.66180    0.22650   1.00
O2       0.83820    0.72650    0.22650   1.00
O2       0.72650    0.77350    0.16180   1.00
O2       0.66180    0.77350    0.22650   1.00
O2       0.72650    0.83820    0.22650   1.00
O2       0.72650    0.66180    0.27350   1.00
O2       0.66180    0.72650    0.27350   1.00
O2       0.72650    0.72650    0.33820   1.00
O2       0.83820    0.77350    0.27350   1.00
O2       0.77350    0.83820    0.27350   1.00
O2       0.77350    0.77350    0.33820   1.00
C1       0.75000    0.75000    0.14480   1.00
C1       0.75000    0.64480    0.25000   1.00
C1       0.85520    0.75000    0.25000   1.00
C1       0.64480    0.75000    0.25000   1.00
C1       0.75000    0.85520    0.25000   1.00
C1       0.75000    0.75000    0.35520   1.00
O1       0.75000    0.25000    0.75000   1.00
Zn1      0.78280    0.21720    0.71720   1.00
Zn1      0.71720    0.28280    0.71720   1.00
Zn1      0.71720    0.21720    0.78280   1.00
Zn1      0.78280    0.28280    0.78280   1.00
O2       0.77350    0.22650    0.66180   1.00
O2       0.77350    0.16180    0.72650   1.00
O2       0.83820    0.22650    0.72650   1.00
O2       0.72650    0.27350    0.66180   1.00
O2       0.66180    0.27350    0.72650   1.00
O2       0.72650    0.33820    0.72650   1.00
O2       0.72650    0.16180    0.77350   1.00
O2       0.66180    0.22650    0.77350   1.00
O2       0.72650    0.22650    0.83820   1.00
O2       0.83820    0.27350    0.77350   1.00
O2       0.77350    0.33820    0.77350   1.00
O2       0.77350    0.27350    0.83820   1.00
C1       0.75000    0.25000    0.64480   1.00
C1       0.75000    0.14480    0.75000   1.00
C1       0.85520    0.25000    0.75000   1.00
C1       0.64480    0.25000    0.75000   1.00
C1       0.75000    0.35520    0.75000   1.00
C1       0.75000    0.25000    0.85520   1.00
O1       0.25000    0.75000    0.75000   1.00
Zn1      0.28280    0.71720    0.71720   1.00
Zn1      0.21720    0.78280    0.71720   1.00
Zn1      0.21720    0.71720    0.78280   1.00
Zn1      0.28280    0.78280    0.78280   1.00
O2       0.27350    0.72650    0.66180   1.00
O2       0.27350    0.66180    0.72650   1.00
O2       0.33820    0.72650    0.72650   1.00
O2       0.22650    0.77350    0.66180   1.00
O2       0.16180    0.77350    0.72650   1.00
O2       0.22650    0.83820    0.72650   1.00
O2       0.22650    0.66180    0.77350   1.00
O2       0.16180    0.72650    0.77350   1.00
O2       0.22650    0.72650    0.83820   1.00
O2       0.33820    0.77350    0.77350   1.00
O2       0.27350    0.83820    0.77350   1.00
O2       0.27350    0.77350    0.83820   1.00
C1       0.25000    0.75000    0.64480   1.00
C1       0.25000    0.64480    0.75000   1.00
C1       0.35520    0.75000    0.75000   1.00
C1       0.14480    0.75000    0.75000   1.00
C1       0.25000    0.85520    0.75000   1.00
C1       0.25000    0.75000    0.85520   1.00
O1       0.91500    0.91500    0.91500   1.00
Zn1      0.88220    0.94780    0.94780   1.00
Zn1      0.94780    0.88220    0.94780   1.00
Zn1      0.94780    0.94780    0.88220   1.00
Zn1      0.88220    0.88220    0.88220   1.00
O2       0.89150    0.93850    1.00320   1.00
O2       0.89150    1.00320    0.93850   1.00
O2       0.82680    0.93850    0.93850   1.00
O2       0.93850    0.89150    1.00320   1.00
O2       1.00320    0.89150    0.93850   1.00
O2       0.93850    0.82680    0.93850   1.00
O2       0.93850    1.00320    0.89150   1.00
O2       1.00320    0.93850    0.89150   1.00
O2       0.93850    0.93850    0.82680   1.00
O2       0.82680    0.89150    0.89150   1.00
O2       0.89150    0.82680    0.89150   1.00
O2       0.89150    0.89150    0.82680   1.00
C1       0.91500    0.91500    1.02020   1.00
C1       0.91500    1.02020    0.91500   1.00
C1       0.80980    0.91500    0.91500   1.00
C1       1.02020    0.91500    0.91500   1.00
C1       0.91500    0.80980    0.91500   1.00
C1       0.91500    0.91500    0.80980   1.00
O1       0.41500    0.41500    0.91500   1.00
Zn1      0.38220    0.44780    0.94780   1.00
Zn1      0.44780    0.38220    0.94780   1.00
Zn1      0.44780    0.44780    0.88220   1.00
Zn1      0.38220    0.38220    0.88220   1.00
O2       0.39150    0.43850    1.00320   1.00
O2       0.39150    0.50320    0.93850   1.00
O2       0.32680    0.43850    0.93850   1.00
O2       0.43850    0.39150    1.00320   1.00
O2       0.50320    0.39150    0.93850   1.00
O2       0.43850    0.32680    0.93850   1.00
O2       0.43850    0.50320    0.89150   1.00
O2       0.50320    0.43850    0.89150   1.00
O2       0.43850    0.43850    0.82680   1.00
O2       0.32680    0.39150    0.89150   1.00
O2       0.39150    0.32680    0.89150   1.00
O2       0.39150    0.39150    0.82680   1.00
C1       0.41500    0.41500    1.02020   1.00
C1       0.41500    0.52020    0.91500   1.00
C1       0.30980    0.41500    0.91500   1.00
C1       0.52020    0.41500    0.91500   1.00
C1       0.41500    0.30980    0.91500   1.00
C1       0.41500    0.41500    0.80980   1.00
O1       0.41500    0.91500    0.41500   1.00
Zn1      0.38220    0.94780    0.44780   1.00
Zn1      0.44780    0.88220    0.44780   1.00
Zn1      0.44780    0.94780    0.38220   1.00
Zn1      0.38220    0.88220    0.38220   1.00
O2       0.39150    0.93850    0.50320   1.00
O2       0.39150    1.00320    0.43850   1.00
O2       0.32680    0.93850    0.43850   1.00
O2       0.43850    0.89150    0.50320   1.00
O2       0.50320    0.89150    0.43850   1.00
O2       0.43850    0.82680    0.43850   1.00
O2       0.43850    1.00320    0.39150   1.00
O2       0.50320    0.93850    0.39150   1.00
O2       0.43850    0.93850    0.32680   1.00
O2       0.32680    0.89150    0.39150   1.00
O2       0.39150    0.82680    0.39150   1.00
O2       0.39150    0.89150    0.32680   1.00
C1       0.41500    0.91500    0.52020   1.00
C1       0.41500    1.02020    0.41500   1.00
C1       0.30980    0.91500    0.41500   1.00
C1       0.52020    0.91500    0.41500   1.00
C1       0.41500    0.80980    0.41500   1.00
C1       0.41500    0.91500    0.30980   1.00
O1       0.91500    0.41500    0.41500   1.00
Zn1      0.88220    0.44780    0.44780   1.00
Zn1      0.94780    0.38220    0.44780   1.00
Zn1      0.94780    0.44780    0.38220   1.00
Zn1      0.88220    0.38220    0.38220   1.00
O2       0.89150    0.43850    0.50320   1.00
O2       0.89150    0.50320    0.43850   1.00
O2       0.82680    0.43850    0.43850   1.00
O2       0.93850    0.39150    0.50320   1.00
O2       1.00320    0.39150    0.43850   1.00
O2       0.93850    0.32680    0.43850   1.00
O2       0.93850    0.50320    0.39150   1.00
O2       1.00320    0.43850    0.39150   1.00
O2       0.93850    0.43850    0.32680   1.00
O2       0.82680    0.39150    0.39150   1.00
O2       0.89150    0.32680    0.39150   1.00
O2       0.89150    0.39150    0.32680   1.00
C1       0.91500    0.41500    0.52020   1.00
C1       0.91500    0.52020    0.41500   1.00
C1       0.80980    0.41500    0.41500   1.00
C1       1.02020    0.41500    0.41500   1.00
C1       0.91500    0.30980    0.41500   1.00
C1       0.91500    0.41500    0.30980   1.00
O1       0.41500    0.41500    0.41500   1.00
Zn1      0.44780    0.38220    0.38220   1.00
Zn1      0.38220    0.44780    0.38220   1.00
Zn1      0.38220    0.38220    0.44780   1.00
Zn1      0.44780    0.44780    0.44780   1.00
O2       0.43850    0.39150    0.32680   1.00
O2       0.43850    0.32680    0.39150   1.00
O2       0.50320    0.39150    0.39150   1.00
O2       0.39150    0.43850    0.32680   1.00
O2       0.32680    0.43850    0.39150   1.00
O2       0.39150    0.50320    0.39150   1.00
O2       0.39150    0.32680    0.43850   1.00
O2       0.32680    0.39150    0.43850   1.00
O2       0.39150    0.39150    0.50320   1.00
O2       0.50320    0.43850    0.43850   1.00
O2       0.43850    0.50320    0.43850   1.00
O2       0.43850    0.43850    0.50320   1.00
C1       0.41500    0.41500    0.30980   1.00
C1       0.41500    0.30980    0.41500   1.00
C1       0.52020    0.41500    0.41500   1.00
C1       0.30980    0.41500    0.41500   1.00
C1       0.41500    0.52020    0.41500   1.00
C1       0.41500    0.41500    0.52020   1.00
O1       0.91500    0.91500    0.41500   1.00
Zn1      0.94780    0.88220    0.38220   1.00
Zn1      0.88220    0.94780    0.38220   1.00
Zn1      0.88220    0.88220    0.44780   1.00
Zn1      0.94780    0.94780    0.44780   1.00
O2       0.93850    0.89150    0.32680   1.00
O2       0.93850    0.82680    0.39150   1.00
O2       1.00320    0.89150    0.39150   1.00
O2       0.89150    0.93850    0.32680   1.00
O2       0.82680    0.93850    0.39150   1.00
O2       0.89150    1.00320    0.39150   1.00
O2       0.89150    0.82680    0.43850   1.00
O2       0.82680    0.89150    0.43850   1.00
O2       0.89150    0.89150    0.50320   1.00
O2       1.00320    0.93850    0.43850   1.00
O2       0.93850    1.00320    0.43850   1.00
O2       0.93850    0.93850    0.50320   1.00
C1       0.91500    0.91500    0.30980   1.00
C1       0.91500    0.80980    0.41500   1.00
C1       1.02020    0.91500    0.41500   1.00
C1       0.80980    0.91500    0.41500   1.00
C1       0.91500    1.02020    0.41500   1.00
C1       0.91500    0.91500    0.52020   1.00
O1       0.91500    0.41500    0.91500   1.00
Zn1      0.94780    0.38220    0.88220   1.00
Zn1      0.88220    0.44780    0.88220   1.00
Zn1      0.88220    0.38220    0.94780   1.00
Zn1      0.94780    0.44780    0.94780   1.00
O2       0.93850    0.39150    0.82680   1.00
O2       0.93850    0.32680    0.89150   1.00
O2       1.00320    0.39150    0.89150   1.00
O2       0.89150    0.43850    0.82680   1.00
O2       0.82680    0.43850    0.89150   1.00
O2       0.89150    0.50320    0.89150   1.00
O2       0.89150    0.32680    0.93850   1.00
O2       0.82680    0.39150    0.93850   1.00
O2       0.89150    0.39150    1.00320   1.00
O2       1.00320    0.43850    0.93850   1.00
O2       0.93850    0.50320    0.93850   1.00
O2       0.93850    0.43850    1.00320   1.00
C1       0.91500    0.41500    0.80980   1.00
C1       0.91500    0.30980    0.91500   1.00
C1       1.02020    0.41500    0.91500   1.00
C1       0.80980    0.41500    0.91500   1.00
C1       0.91500    0.52020    0.91500   1.00
C1       0.91500    0.41500    1.02020   1.00
O1       0.41500    0.91500    0.91500   1.00
Zn1      0.44780    0.88220    0.88220   1.00
Zn1      0.38220    0.94780    0.88220   1.00
Zn1      0.38220    0.88220    0.94780   1.00
Zn1      0.44780    0.94780    0.94780   1.00
O2       0.43850    0.89150    0.82680   1.00
O2       0.43850    0.82680    0.89150   1.00
O2       0.50320    0.89150    0.89150   1.00
O2       0.39150    0.93850    0.82680   1.00
O2       0.32680    0.93850    0.89150   1.00
O2       0.39150    1.00320    0.89150   1.00
O2       0.39150    0.82680    0.93850   1.00
O2       0.32680    0.89150    0.93850   1.00
O2       0.39150    0.89150    1.00320   1.00
O2       0.50320    0.93850    0.93850   1.00
O2       0.43850    1.00320    0.93850   1.00
O2       0.43850    0.93850    1.00320   1.00
C1       0.41500    0.91500    0.80980   1.00
C1       0.41500    0.80980    0.91500   1.00
C1       0.52020    0.91500    0.91500   1.00
C1       0.30980    0.91500    0.91500   1.00
C1       0.41500    1.02020    0.91500   1.00
C1       0.41500    0.91500    1.02020   1.00
C4       0.75346    0.75331    0.98025   1.00
C4       0.75499    0.75305    1.02191   1.00
C3       0.73058    0.78075    0.95897   1.00
C3       0.73711    0.78262    1.04504   1.00
C3       0.77542    0.72524    0.95854   1.00
C3       0.77509    0.72230    1.04170   1.00
C2       0.75185    0.75510    0.89595   1.00
C2       0.75642    0.75153    1.10622   1.00
C3       0.72990    0.78180    0.91811   1.00
C3       0.73759    0.78184    1.08591   1.00
C3       0.77411    0.72744    0.91696   1.00
C3       0.77472    0.72246    1.08336   1.00
H1       0.71325    0.80076    0.97237   1.00
H1       0.72339    0.80604    1.03306   1.00
C5       0.79771    0.69587    0.97835   1.00
C5       0.79504    0.69261    1.01998   1.00
H1       0.71293    0.80241    0.90451   1.00
H1       0.72401    0.80395    1.10091   1.00
H1       0.78954    0.70815    0.90052   1.00
H1       0.78846    0.70095    1.09848   1.00
C6       0.82404    0.66903    0.95515   1.00
C6       0.81261    0.65805    1.04119   1.00
H2       0.83978    0.68613    0.93345   1.00
H2       0.79200    0.64775    1.06310   1.00
H2       0.84780    0.65773    0.97286   1.00
H2       0.81505    0.63270    1.02228   1.00
C6       0.80173    0.63395    0.93606   1.00
C6       0.85359    0.66702    1.05942   1.00
H2       0.77461    0.64442    0.92292   1.00
H2       0.85287    0.69547    1.07383   1.00
C6       0.82395    0.60940    0.90459   1.00
C6       0.87058    0.63674    1.08911   1.00
H2       0.79267    0.61432    0.95949   1.00
H2       0.87437    0.67027    1.03546   1.00
C6       0.83245    0.63370    0.86735   1.00
C6       0.84599    0.63494    1.12708   1.00
C6       0.86277    0.59279    0.92074   1.00
C6       0.87321    0.59537    1.07107   1.00
C6       0.79778    0.57445    0.89245   1.00
C6       0.91247    0.64969    1.10054   1.00
H2       0.80568    0.64637    0.85558   1.00
H2       0.84304    0.66383    1.14020   1.00
H2       0.85270    0.65745    0.87330   1.00
H2       0.81679    0.62370    1.12154   1.00
H2       0.84549    0.61564    0.84459   1.00
H2       0.85954    0.61581    1.14863   1.00
H2       0.87664    0.57348    0.89955   1.00
H2       0.88764    0.57511    1.09098   1.00
H2       0.88333    0.61617    0.92725   1.00
H2       0.84425    0.58374    1.06494   1.00
H2       0.85771    0.57623    0.94745   1.00
H2       0.88970    0.59596    1.04385   1.00
H2       0.77008    0.58461    0.88042   1.00
H2       0.91221    0.67865    1.11383   1.00
H2       0.81197    0.55653    0.87025   1.00
H2       0.92551    0.62954    1.12149   1.00
H2       0.79140    0.55571    0.91739   1.00
H2       0.93149    0.65076    1.07502   1.00
C4       0.75331    0.98025    0.75346   1.00
C4       0.75305    1.02191    0.75499   1.00
C3       0.78075    0.95897    0.73058   1.00
C3       0.78262    1.04504    0.73711   1.00
C3       0.72524    0.95854    0.77542   1.00
C3       0.72230    1.04170    0.77509   1.00
C2       0.75510    0.89595    0.75185   1.00
C2       0.75153    1.10622    0.75642   1.00
C3       0.78180    0.91811    0.72990   1.00
C3       0.78184    1.08591    0.73759   1.00
C3       0.72744    0.91696    0.77411   1.00
C3       0.72246    1.08336    0.77472   1.00
H1       0.80076    0.97237    0.71325   1.00
H1       0.80604    1.03306    0.72339   1.00
C5       0.69587    0.97835    0.79771   1.00
C5       0.69261    1.01998    0.79504   1.00
H1       0.80241    0.90451    0.71293   1.00
H1       0.80395    1.10091    0.72401   1.00
H1       0.70815    0.90052    0.78954   1.00
H1       0.70095    1.09848    0.78846   1.00
C6       0.66903    0.95515    0.82404   1.00
C6       0.65805    1.04119    0.81261   1.00
H2       0.68613    0.93345    0.83978   1.00
H2       0.64775    1.06310    0.79200   1.00
H2       0.65773    0.97286    0.84780   1.00
H2       0.63270    1.02228    0.81505   1.00
C6       0.63395    0.93606    0.80173   1.00
C6       0.66702    1.05942    0.85359   1.00
H2       0.64442    0.92292    0.77461   1.00
H2       0.69547    1.07383    0.85287   1.00
C6       0.60940    0.90459    0.82395   1.00
C6       0.63674    1.08911    0.87058   1.00
H2       0.61432    0.95949    0.79267   1.00
H2       0.67027    1.03546    0.87437   1.00
C6       0.63370    0.86735    0.83245   1.00
C6       0.63494    1.12708    0.84599   1.00
C6       0.59279    0.92074    0.86277   1.00
C6       0.59537    1.07107    0.87321   1.00
C6       0.57445    0.89245    0.79778   1.00
C6       0.64969    1.10054    0.91247   1.00
H2       0.64637    0.85558    0.80568   1.00
H2       0.66383    1.14020    0.84304   1.00
H2       0.65745    0.87330    0.85270   1.00
H2       0.62370    1.12154    0.81679   1.00
H2       0.61564    0.84459    0.84549   1.00
H2       0.61581    1.14863    0.85954   1.00
H2       0.57348    0.89955    0.87664   1.00
H2       0.57511    1.09098    0.88764   1.00
H2       0.61617    0.92725    0.88333   1.00
H2       0.58374    1.06494    0.84425   1.00
H2       0.57623    0.94745    0.85771   1.00
H2       0.59596    1.04385    0.88970   1.00
H2       0.58461    0.88042    0.77008   1.00
H2       0.67865    1.11383    0.91221   1.00
H2       0.55653    0.87025    0.81197   1.00
H2       0.62954    1.12149    0.92551   1.00
H2       0.55571    0.91739    0.79140   1.00
H2       0.65076    1.07502    0.93149   1.00
C4       0.51975    0.75346    0.74669   1.00
C4       0.47809    0.75499    0.74695   1.00
C3       0.54103    0.73058    0.71925   1.00
C3       0.45496    0.73711    0.71738   1.00
C3       0.54146    0.77542    0.77476   1.00
C3       0.45830    0.77509    0.77770   1.00
C2       0.60405    0.75185    0.74490   1.00
C2       0.39378    0.75642    0.74847   1.00
C3       0.58189    0.72990    0.71820   1.00
C3       0.41409    0.73759    0.71816   1.00
C3       0.58304    0.77411    0.77256   1.00
C3       0.41664    0.77472    0.77754   1.00
H1       0.52763    0.71325    0.69924   1.00
H1       0.46694    0.72339    0.69396   1.00
C5       0.52165    0.79771    0.80413   1.00
C5       0.48002    0.79504    0.80739   1.00
H1       0.59549    0.71293    0.69759   1.00
H1       0.39909    0.72401    0.69605   1.00
H1       0.59948    0.78954    0.79185   1.00
H1       0.40152    0.78846    0.79905   1.00
C6       0.54485    0.82404    0.83097   1.00
C6       0.45881    0.81261    0.84195   1.00
H2       0.56655    0.83978    0.81387   1.00
H2       0.43690    0.79200    0.85225   1.00
H2       0.52714    0.84780    0.84227   1.00
H2       0.47772    0.81505    0.86730   1.00
C6       0.56394    0.80173    0.86605   1.00
C6       0.44058    0.85359    0.83298   1.00
H2       0.57708    0.77461    0.85558   1.00
H2       0.42617    0.85287    0.80453   1.00
C6       0.59541    0.82395    0.89060   1.00
C6       0.41089    0.87058    0.86326   1.00
H2       0.54051    0.79267    0.88568   1.00
H2       0.46454    0.87437    0.82973   1.00
C6       0.63265    0.83245    0.86630   1.00
C6       0.37292    0.84599    0.86506   1.00
C6       0.57926    0.86277    0.90721   1.00
C6       0.42893    0.87321    0.90463   1.00
C6       0.60755    0.79778    0.92555   1.00
C6       0.39946    0.91247    0.85031   1.00
H2       0.64442    0.80568    0.85363   1.00
H2       0.35980    0.84304    0.83617   1.00
H2       0.62670    0.85270    0.84255   1.00
H2       0.37846    0.81679    0.87630   1.00
H2       0.65541    0.84549    0.88436   1.00
H2       0.35137    0.85954    0.88419   1.00
H2       0.60045    0.87664    0.92652   1.00
H2       0.40902    0.88764    0.92489   1.00
H2       0.57275    0.88333    0.88383   1.00
H2       0.43506    0.84425    0.91626   1.00
H2       0.55255    0.85771    0.92377   1.00
H2       0.45615    0.88970    0.90404   1.00
H2       0.61958    0.77008    0.91539   1.00
H2       0.38617    0.91221    0.82135   1.00
H2       0.62975    0.81197    0.94347   1.00
H2       0.37851    0.92551    0.87046   1.00
H2       0.58261    0.79140    0.94429   1.00
H2       0.42498    0.93149    0.84924   1.00
C4       0.98025    0.75346    0.75331   1.00
C4       1.02191    0.75499    0.75305   1.00
C3       0.95897    0.73058    0.78075   1.00
C3       1.04504    0.73711    0.78262   1.00
C3       0.95854    0.77542    0.72524   1.00
C3       1.04170    0.77509    0.72230   1.00
C2       0.89595    0.75185    0.75510   1.00
C2       1.10622    0.75642    0.75153   1.00
C3       0.91811    0.72990    0.78180   1.00
C3       1.08591    0.73759    0.78184   1.00
C3       0.91696    0.77411    0.72744   1.00
C3       1.08336    0.77472    0.72246   1.00
H1       0.97237    0.71325    0.80076   1.00
H1       1.03306    0.72339    0.80604   1.00
C5       0.97835    0.79771    0.69587   1.00
C5       1.01998    0.79504    0.69261   1.00
H1       0.90451    0.71293    0.80241   1.00
H1       1.10091    0.72401    0.80395   1.00
H1       0.90052    0.78954    0.70815   1.00
H1       1.09848    0.78846    0.70095   1.00
C6       0.95515    0.82404    0.66903   1.00
C6       1.04119    0.81261    0.65805   1.00
H2       0.93345    0.83978    0.68613   1.00
H2       1.06310    0.79200    0.64775   1.00
H2       0.97286    0.84780    0.65773   1.00
H2       1.02228    0.81505    0.63270   1.00
C6       0.93606    0.80173    0.63395   1.00
C6       1.05942    0.85359    0.66702   1.00
H2       0.92292    0.77461    0.64442   1.00
H2       1.07383    0.85287    0.69547   1.00
C6       0.90459    0.82395    0.60940   1.00
C6       1.08911    0.87058    0.63674   1.00
H2       0.95949    0.79267    0.61432   1.00
H2       1.03546    0.87437    0.67027   1.00
C6       0.86735    0.83245    0.63370   1.00
C6       1.12708    0.84599    0.63494   1.00
C6       0.92074    0.86277    0.59279   1.00
C6       1.07107    0.87321    0.59537   1.00
C6       0.89245    0.79778    0.57445   1.00
C6       1.10054    0.91247    0.64969   1.00
H2       0.85558    0.80568    0.64637   1.00
H2       1.14020    0.84304    0.66383   1.00
H2       0.87330    0.85270    0.65745   1.00
H2       1.12154    0.81679    0.62370   1.00
H2       0.84459    0.84549    0.61564   1.00
H2       1.14863    0.85954    0.61581   1.00
H2       0.89955    0.87664    0.57348   1.00
H2       1.09098    0.88764    0.57511   1.00
H2       0.92725    0.88333    0.61617   1.00
H2       1.06494    0.84425    0.58374   1.00
H2       0.94745    0.85771    0.57623   1.00
H2       1.04385    0.88970    0.59596   1.00
H2       0.88042    0.77008    0.58461   1.00
H2       1.11383    0.91221    0.67865   1.00
H2       0.87025    0.81197    0.55653   1.00
H2       1.12149    0.92551    0.62954   1.00
H2       0.91739    0.79140    0.55571   1.00
H2       1.07502    0.93149    0.65076   1.00
C4       0.74669    0.51975    0.75346   1.00
C4       0.74695    0.47809    0.75499   1.00
C3       0.71925    0.54103    0.73058   1.00
C3       0.71738    0.45496    0.73711   1.00
C3       0.77476    0.54146    0.77542   1.00
C3       0.77770    0.45830    0.77509   1.00
C2       0.74490    0.60405    0.75185   1.00
C2       0.74847    0.39378    0.75642   1.00
C3       0.71820    0.58189    0.72990   1.00
C3       0.71816    0.41409    0.73759   1.00
C3       0.77256    0.58304    0.77411   1.00
C3       0.77754    0.41664    0.77472   1.00
H1       0.69924    0.52763    0.71325   1.00
H1       0.69396    0.46694    0.72339   1.00
C5       0.80413    0.52165    0.79771   1.00
C5       0.80739    0.48002    0.79504   1.00
H1       0.69759    0.59549    0.71293   1.00
H1       0.69605    0.39909    0.72401   1.00
H1       0.79185    0.59948    0.78954   1.00
H1       0.79905    0.40152    0.78846   1.00
C6       0.83097    0.54485    0.82404   1.00
C6       0.84195    0.45881    0.81261   1.00
H2       0.81387    0.56655    0.83978   1.00
H2       0.85225    0.43690    0.79200   1.00
H2       0.84227    0.52714    0.84780   1.00
H2       0.86730    0.47772    0.81505   1.00
C6       0.86605    0.56394    0.80173   1.00
C6       0.83298    0.44058    0.85359   1.00
H2       0.85558    0.57708    0.77461   1.00
H2       0.80453    0.42617    0.85287   1.00
C6       0.89060    0.59541    0.82395   1.00
C6       0.86326    0.41089    0.87058   1.00
H2       0.88568    0.54051    0.79267   1.00
H2       0.82973    0.46454    0.87437   1.00
C6       0.86630    0.63265    0.83245   1.00
C6       0.86506    0.37292    0.84599   1.00
C6       0.90721    0.57926    0.86277   1.00
C6       0.90463    0.42893    0.87321   1.00
C6       0.92555    0.60755    0.79778   1.00
C6       0.85031    0.39946    0.91247   1.00
H2       0.85363    0.64442    0.80568   1.00
H2       0.83617    0.35980    0.84304   1.00
H2       0.84255    0.62670    0.85270   1.00
H2       0.87630    0.37846    0.81679   1.00
H2       0.88436    0.65541    0.84549   1.00
H2       0.88419    0.35137    0.85954   1.00
H2       0.92652    0.60045    0.87664   1.00
H2       0.92489    0.40902    0.88764   1.00
H2       0.88383    0.57275    0.88333   1.00
H2       0.91626    0.43506    0.84425   1.00
H2       0.92377    0.55255    0.85771   1.00
H2       0.90404    0.45615    0.88970   1.00
H2       0.91539    0.61958    0.77008   1.00
H2       0.82135    0.38617    0.91221   1.00
H2       0.94347    0.62975    0.81197   1.00
H2       0.87046    0.37851    0.92551   1.00
H2       0.94429    0.58261    0.79140   1.00
H2       0.84924    0.42498    0.93149   1.00
C4       0.75346    0.74669    0.51975   1.00
C4       0.75499    0.74695    0.47809   1.00
C3       0.73058    0.71925    0.54103   1.00
C3       0.73711    0.71738    0.45496   1.00
C3       0.77542    0.77476    0.54146   1.00
C3       0.77509    0.77770    0.45830   1.00
C2       0.75185    0.74490    0.60405   1.00
C2       0.75642    0.74847    0.39378   1.00
C3       0.72990    0.71820    0.58189   1.00
C3       0.73759    0.71816    0.41409   1.00
C3       0.77411    0.77256    0.58304   1.00
C3       0.77472    0.77754    0.41664   1.00
H1       0.71325    0.69924    0.52763   1.00
H1       0.72339    0.69396    0.46694   1.00
C5       0.79771    0.80413    0.52165   1.00
C5       0.79504    0.80739    0.48002   1.00
H1       0.71293    0.69759    0.59549   1.00
H1       0.72401    0.69605    0.39909   1.00
H1       0.78954    0.79185    0.59948   1.00
H1       0.78846    0.79905    0.40152   1.00
C6       0.82404    0.83097    0.54485   1.00
C6       0.81261    0.84195    0.45881   1.00
H2       0.83978    0.81387    0.56655   1.00
H2       0.79200    0.85225    0.43690   1.00
H2       0.84780    0.84227    0.52714   1.00
H2       0.81505    0.86730    0.47772   1.00
C6       0.80173    0.86605    0.56394   1.00
C6       0.85359    0.83298    0.44058   1.00
H2       0.77461    0.85558    0.57708   1.00
H2       0.85287    0.80453    0.42617   1.00
C6       0.82395    0.89060    0.59541   1.00
C6       0.87058    0.86326    0.41089   1.00
H2       0.79267    0.88568    0.54051   1.00
H2       0.87437    0.82973    0.46454   1.00
C6       0.83245    0.86630    0.63265   1.00
C6       0.84599    0.86506    0.37292   1.00
C6       0.86277    0.90721    0.57926   1.00
C6       0.87321    0.90463    0.42893   1.00
C6       0.79778    0.92555    0.60755   1.00
C6       0.91247    0.85031    0.39946   1.00
H2       0.80568    0.85363    0.64442   1.00
H2       0.84304    0.83617    0.35980   1.00
H2       0.85270    0.84255    0.62670   1.00
H2       0.81679    0.87630    0.37846   1.00
H2       0.84549    0.88436    0.65541   1.00
H2       0.85954    0.88419    0.35137   1.00
H2       0.87664    0.92652    0.60045   1.00
H2       0.88764    0.92489    0.40902   1.00
H2       0.88333    0.88383    0.57275   1.00
H2       0.84425    0.91626    0.43506   1.00
H2       0.85771    0.92377    0.55255   1.00
H2       0.88970    0.90404    0.45615   1.00
H2       0.77008    0.91539    0.61958   1.00
H2       0.91221    0.82135    0.38617   1.00
H2       0.81197    0.94347    0.62975   1.00
H2       0.92551    0.87046    0.37851   1.00
H2       0.79140    0.94429    0.58261   1.00
H2       0.93149    0.84924    0.42498   1.00
C4       0.25346    0.25331    0.98025   1.00
C4       0.25499    0.25305    1.02191   1.00
C3       0.23058    0.28075    0.95897   1.00
C3       0.23711    0.28262    1.04504   1.00
C3       0.27542    0.22524    0.95854   1.00
C3       0.27509    0.22230    1.04170   1.00
C2       0.25185    0.25510    0.89595   1.00
C2       0.25642    0.25153    1.10622   1.00
C3       0.22990    0.28180    0.91811   1.00
C3       0.23759    0.28184    1.08591   1.00
C3       0.27411    0.22744    0.91696   1.00
C3       0.27472    0.22246    1.08336   1.00
H1       0.21325    0.30076    0.97237   1.00
H1       0.22339    0.30604    1.03306   1.00
C5       0.29771    0.19587    0.97835   1.00
C5       0.29504    0.19261    1.01998   1.00
H1       0.21293    0.30241    0.90451   1.00
H1       0.22401    0.30395    1.10091   1.00
H1       0.28954    0.20815    0.90052   1.00
H1       0.28846    0.20095    1.09848   1.00
C6       0.32404    0.16903    0.95515   1.00
C6       0.31261    0.15805    1.04119   1.00
H2       0.33978    0.18613    0.93345   1.00
H2       0.29200    0.14775    1.06310   1.00
H2       0.34780    0.15773    0.97286   1.00
H2       0.31505    0.13270    1.02228   1.00
C6       0.30173    0.13395    0.93606   1.00
C6       0.35359    0.16702    1.05942   1.00
H2       0.27461    0.14442    0.92292   1.00
H2       0.35287    0.19547    1.07383   1.00
C6       0.32395    0.10940    0.90459   1.00
C6       0.37058    0.13674    1.08911   1.00
H2       0.29267    0.11432    0.95949   1.00
H2       0.37437    0.17027    1.03546   1.00
C6       0.33245    0.13370    0.86735   1.00
C6       0.34599    0.13494    1.12708   1.00
C6       0.36277    0.09279    0.92074   1.00
C6       0.37321    0.09537    1.07107   1.00
C6       0.29778    0.07445    0.89245   1.00
C6       0.41247    0.14969    1.10054   1.00
H2       0.30568    0.14637    0.85558   1.00
H2       0.34304    0.16383    1.14020   1.00
H2       0.35270    0.15745    0.87330   1.00
H2       0.31679    0.12370    1.12154   1.00
H2       0.34549    0.11564    0.84459   1.00
H2       0.35954    0.11581    1.14863   1.00
H2       0.37664    0.07348    0.89955   1.00
H2       0.38764    0.07511    1.09098   1.00
H2       0.38333    0.11617    0.92725   1.00
H2       0.34425    0.08374    1.06494   1.00
H2       0.35771    0.07623    0.94745   1.00
H2       0.38970    0.09596    1.04385   1.00
H2       0.27008    0.08461    0.88042   1.00
H2       0.41221    0.17865    1.11383   1.00
H2       0.31197    0.05653    0.87025   1.00
H2       0.42551    0.12954    1.12149   1.00
H2       0.29140    0.05571    0.91739   1.00
H2       0.43149    0.15076    1.07502   1.00
C4       0.25331    0.48025    0.75346   1.00
C4       0.25305    0.52191    0.75499   1.00
C3       0.28075    0.45897    0.73058   1.00
C3       0.28262    0.54504    0.73711   1.00
C3       0.22524    0.45854    0.77542   1.00
C3       0.22230    0.54170    0.77509   1.00
C2       0.25510    0.39595    0.75185   1.00
C2       0.25153    0.60622    0.75642   1.00
C3       0.28180    0.41811    0.72990   1.00
C3       0.28184    0.58591    0.73759   1.00
C3       0.22744    0.41696    0.77411   1.00
C3       0.22246    0.58336    0.77472   1.00
H1       0.30076    0.47237    0.71325   1.00
H1       0.30604    0.53306    0.72339   1.00
C5       0.19587    0.47835    0.79771   1.00
C5       0.19261    0.51998    0.79504   1.00
H1       0.30241    0.40451    0.71293   1.00
H1       0.30395    0.60091    0.72401   1.00
H1       0.20815    0.40052    0.78954   1.00
H1       0.20095    0.59848    0.78846   1.00
C6       0.16903    0.45515    0.82404   1.00
C6       0.15805    0.54119    0.81261   1.00
H2       0.18613    0.43345    0.83978   1.00
H2       0.14775    0.56310    0.79200   1.00
H2       0.15773    0.47286    0.84780   1.00
H2       0.13270    0.52228    0.81505   1.00
C6       0.13395    0.43606    0.80173   1.00
C6       0.16702    0.55942    0.85359   1.00
H2       0.14442    0.42292    0.77461   1.00
H2       0.19547    0.57383    0.85287   1.00
C6       0.10940    0.40459    0.82395   1.00
C6       0.13674    0.58911    0.87058   1.00
H2       0.11432    0.45949    0.79267   1.00
H2       0.17027    0.53546    0.87437   1.00
C6       0.13370    0.36735    0.83245   1.00
C6       0.13494    0.62708    0.84599   1.00
C6       0.09279    0.42074    0.86277   1.00
C6       0.09537    0.57107    0.87321   1.00
C6       0.07445    0.39245    0.79778   1.00
C6       0.14969    0.60054    0.91247   1.00
H2       0.14637    0.35558    0.80568   1.00
H2       0.16383    0.64020    0.84304   1.00
H2       0.15745    0.37330    0.85270   1.00
H2       0.12370    0.62154    0.81679   1.00
H2       0.11564    0.34459    0.84549   1.00
H2       0.11581    0.64863    0.85954   1.00
H2       0.07348    0.39955    0.87664   1.00
H2       0.07511    0.59098    0.88764   1.00
H2       0.11617    0.42725    0.88333   1.00
H2       0.08374    0.56494    0.84425   1.00
H2       0.07623    0.44745    0.85771   1.00
H2       0.09596    0.54385    0.88970   1.00
H2       0.08461    0.38042    0.77008   1.00
H2       0.17865    0.61383    0.91221   1.00
H2       0.05653    0.37025    0.81197   1.00
H2       0.12954    0.62149    0.92551   1.00
H2       0.05571    0.41739    0.79140   1.00
H2       0.15076    0.57502    0.93149   1.00
C4       0.01975    0.25346    0.74669   1.00
C4       -0.02191   0.25499    0.74695   1.00
C3       0.04103    0.23058    0.71925   1.00
C3       -0.04504   0.23711    0.71738   1.00
C3       0.04146    0.27542    0.77476   1.00
C3       -0.04170   0.27509    0.77770   1.00
C2       0.10405    0.25185    0.74490   1.00
C2       -0.10622   0.25642    0.74847   1.00
C3       0.08189    0.22990    0.71820   1.00
C3       -0.08591   0.23759    0.71816   1.00
C3       0.08304    0.27411    0.77256   1.00
C3       -0.08336   0.27472    0.77754   1.00
H1       0.02763    0.21325    0.69924   1.00
H1       -0.03306   0.22339    0.69396   1.00
C5       0.02165    0.29771    0.80413   1.00
C5       -0.01998   0.29504    0.80739   1.00
H1       0.09549    0.21293    0.69759   1.00
H1       -0.10091   0.22401    0.69605   1.00
H1       0.09948    0.28954    0.79185   1.00
H1       -0.09848   0.28846    0.79905   1.00
C6       0.04485    0.32404    0.83097   1.00
C6       -0.04119   0.31261    0.84195   1.00
H2       0.06655    0.33978    0.81387   1.00
H2       -0.06310   0.29200    0.85225   1.00
H2       0.02714    0.34780    0.84227   1.00
H2       -0.02228   0.31505    0.86730   1.00
C6       0.06394    0.30173    0.86605   1.00
C6       -0.05942   0.35359    0.83298   1.00
H2       0.07708    0.27461    0.85558   1.00
H2       -0.07383   0.35287    0.80453   1.00
C6       0.09541    0.32395    0.89060   1.00
C6       -0.08911   0.37058    0.86326   1.00
H2       0.04051    0.29267    0.88568   1.00
H2       -0.03546   0.37437    0.82973   1.00
C6       0.13265    0.33245    0.86630   1.00
C6       -0.12708   0.34599    0.86506   1.00
C6       0.07926    0.36277    0.90721   1.00
C6       -0.07107   0.37321    0.90463   1.00
C6       0.10755    0.29778    0.92555   1.00
C6       -0.10054   0.41247    0.85031   1.00
H2       0.14442    0.30568    0.85363   1.00
H2       -0.14020   0.34304    0.83617   1.00
H2       0.12670    0.35270    0.84255   1.00
H2       -0.12154   0.31679    0.87630   1.00
H2       0.15541    0.34549    0.88436   1.00
H2       -0.14863   0.35954    0.88419   1.00
H2       0.10045    0.37664    0.92652   1.00
H2       -0.09098   0.38764    0.92489   1.00
H2       0.07275    0.38333    0.88383   1.00
H2       -0.06494   0.34425    0.91626   1.00
H2       0.05255    0.35771    0.92377   1.00
H2       -0.04385   0.38970    0.90404   1.00
H2       0.11958    0.27008    0.91539   1.00
H2       -0.11383   0.41221    0.82135   1.00
H2       0.12975    0.31197    0.94347   1.00
H2       -0.12149   0.42551    0.87046   1.00
H2       0.08261    0.29140    0.94429   1.00
H2       -0.07502   0.43149    0.84924   1.00
C4       0.48025    0.25346    0.75331   1.00
C4       0.52191    0.25499    0.75305   1.00
C3       0.45897    0.23058    0.78075   1.00
C3       0.54504    0.23711    0.78262   1.00
C3       0.45854    0.27542    0.72524   1.00
C3       0.54170    0.27509    0.72230   1.00
C2       0.39595    0.25185    0.75510   1.00
C2       0.60622    0.25642    0.75153   1.00
C3       0.41811    0.22990    0.78180   1.00
C3       0.58591    0.23759    0.78184   1.00
C3       0.41696    0.27411    0.72744   1.00
C3       0.58336    0.27472    0.72246   1.00
H1       0.47237    0.21325    0.80076   1.00
H1       0.53306    0.22339    0.80604   1.00
C5       0.47835    0.29771    0.69587   1.00
C5       0.51998    0.29504    0.69261   1.00
H1       0.40451    0.21293    0.80241   1.00
H1       0.60091    0.22401    0.80395   1.00
H1       0.40052    0.28954    0.70815   1.00
H1       0.59848    0.28846    0.70095   1.00
C6       0.45515    0.32404    0.66903   1.00
C6       0.54119    0.31261    0.65805   1.00
H2       0.43345    0.33978    0.68613   1.00
H2       0.56310    0.29200    0.64775   1.00
H2       0.47286    0.34780    0.65773   1.00
H2       0.52228    0.31505    0.63270   1.00
C6       0.43606    0.30173    0.63395   1.00
C6       0.55942    0.35359    0.66702   1.00
H2       0.42292    0.27461    0.64442   1.00
H2       0.57383    0.35287    0.69547   1.00
C6       0.40459    0.32395    0.60940   1.00
C6       0.58911    0.37058    0.63674   1.00
H2       0.45949    0.29267    0.61432   1.00
H2       0.53546    0.37437    0.67027   1.00
C6       0.36735    0.33245    0.63370   1.00
C6       0.62708    0.34599    0.63494   1.00
C6       0.42074    0.36277    0.59279   1.00
C6       0.57107    0.37321    0.59537   1.00
C6       0.39245    0.29778    0.57445   1.00
C6       0.60054    0.41247    0.64969   1.00
H2       0.35558    0.30568    0.64637   1.00
H2       0.64020    0.34304    0.66383   1.00
H2       0.37330    0.35270    0.65745   1.00
H2       0.62154    0.31679    0.62370   1.00
H2       0.34459    0.34549    0.61564   1.00
H2       0.64863    0.35954    0.61581   1.00
H2       0.39955    0.37664    0.57348   1.00
H2       0.59098    0.38764    0.57511   1.00
H2       0.42725    0.38333    0.61617   1.00
H2       0.56494    0.34425    0.58374   1.00
H2       0.44745    0.35771    0.57623   1.00
H2       0.54385    0.38970    0.59596   1.00
H2       0.38042    0.27008    0.58461   1.00
H2       0.61383    0.41221    0.67865   1.00
H2       0.37025    0.31197    0.55653   1.00
H2       0.62149    0.42551    0.62954   1.00
H2       0.41739    0.29140    0.55571   1.00
H2       0.57502    0.43149    0.65076   1.00
C4       0.24669    0.01975    0.75346   1.00
C4       0.24695    -0.02191   0.75499   1.00
C3       0.21925    0.04103    0.73058   1.00
C3       0.21738    -0.04504   0.73711   1.00
C3       0.27476    0.04146    0.77542   1.00
C3       0.27770    -0.04170   0.77509   1.00
C2       0.24490    0.10405    0.75185   1.00
C2       0.24847    -0.10622   0.75642   1.00
C3       0.21820    0.08189    0.72990   1.00
C3       0.21816    -0.08591   0.73759   1.00
C3       0.27256    0.08304    0.77411   1.00
C3       0.27754    -0.08336   0.77472   1.00
H1       0.19924    0.02763    0.71325   1.00
H1       0.19396    -0.03306   0.72339   1.00
C5       0.30413    0.02165    0.79771   1.00
C5       0.30739    -0.01998   0.79504   1.00
H1       0.19759    0.09549    0.71293   1.00
H1       0.19605    -0.10091   0.72401   1.00
H1       0.29185    0.09948    0.78954   1.00
H1       0.29905    -0.09848   0.78846   1.00
C6       0.33097    0.04485    0.82404   1.00
C6       0.34195    -0.04119   0.81261   1.00
H2       0.31387    0.06655    0.83978   1.00
H2       0.35225    -0.06310   0.79200   1.00
H2       0.34227    0.02714    0.84780   1.00
H2       0.36730    -0.02228   0.81505   1.00
C6       0.36605    0.06394    0.80173   1.00
C6       0.33298    -0.05942   0.85359   1.00
H2       0.35558    0.07708    0.77461   1.00
H2       0.30453    -0.07383   0.85287   1.00
C6       0.39060    0.09541    0.82395   1.00
C6       0.36326    -0.08911   0.87058   1.00
H2       0.38568    0.04051    0.79267   1.00
H2       0.32973    -0.03546   0.87437   1.00
C6       0.36630    0.13265    0.83245   1.00
C6       0.36506    -0.12708   0.84599   1.00
C6       0.40721    0.07926    0.86277   1.00
C6       0.40463    -0.07107   0.87321   1.00
C6       0.42555    0.10755    0.79778   1.00
C6       0.35031    -0.10054   0.91247   1.00
H2       0.35363    0.14442    0.80568   1.00
H2       0.33617    -0.14020   0.84304   1.00
H2       0.34255    0.12670    0.85270   1.00
H2       0.37630    -0.12154   0.81679   1.00
H2       0.38436    0.15541    0.84549   1.00
H2       0.38419    -0.14863   0.85954   1.00
H2       0.42652    0.10045    0.87664   1.00
H2       0.42489    -0.09098   0.88764   1.00
H2       0.38383    0.07275    0.88333   1.00
H2       0.41626    -0.06494   0.84425   1.00
H2       0.42377    0.05255    0.85771   1.00
H2       0.40404    -0.04385   0.88970   1.00
H2       0.41539    0.11958    0.77008   1.00
H2       0.32135    -0.11383   0.91221   1.00
H2       0.44347    0.12975    0.81197   1.00
H2       0.37046    -0.12149   0.92551   1.00
H2       0.44429    0.08261    0.79140   1.00
H2       0.34924    -0.07502   0.93149   1.00
C4       0.25346    0.24669    0.51975   1.00
C4       0.25499    0.24695    0.47809   1.00
C3       0.23058    0.21925    0.54103   1.00
C3       0.23711    0.21738    0.45496   1.00
C3       0.27542    0.27476    0.54146   1.00
C3       0.27509    0.27770    0.45830   1.00
C2       0.25185    0.24490    0.60405   1.00
C2       0.25642    0.24847    0.39378   1.00
C3       0.22990    0.21820    0.58189   1.00
C3       0.23759    0.21816    0.41409   1.00
C3       0.27411    0.27256    0.58304   1.00
C3       0.27472    0.27754    0.41664   1.00
H1       0.21325    0.19924    0.52763   1.00
H1       0.22339    0.19396    0.46694   1.00
C5       0.29771    0.30413    0.52165   1.00
C5       0.29504    0.30739    0.48002   1.00
H1       0.21293    0.19759    0.59549   1.00
H1       0.22401    0.19605    0.39909   1.00
H1       0.28954    0.29185    0.59948   1.00
H1       0.28846    0.29905    0.40152   1.00
C6       0.32404    0.33097    0.54485   1.00
C6       0.31261    0.34195    0.45881   1.00
H2       0.33978    0.31387    0.56655   1.00
H2       0.29200    0.35225    0.43690   1.00
H2       0.34780    0.34227    0.52714   1.00
H2       0.31505    0.36730    0.47772   1.00
C6       0.30173    0.36605    0.56394   1.00
C6       0.35359    0.33298    0.44058   1.00
H2       0.27461    0.35558    0.57708   1.00
H2       0.35287    0.30453    0.42617   1.00
C6       0.32395    0.39060    0.59541   1.00
C6       0.37058    0.36326    0.41089   1.00
H2       0.29267    0.38568    0.54051   1.00
H2       0.37437    0.32973    0.46454   1.00
C6       0.33245    0.36630    0.63265   1.00
C6       0.34599    0.36506    0.37292   1.00
C6       0.36277    0.40721    0.57926   1.00
C6       0.37321    0.40463    0.42893   1.00
C6       0.29778    0.42555    0.60755   1.00
C6       0.41247    0.35031    0.39946   1.00
H2       0.30568    0.35363    0.64442   1.00
H2       0.34304    0.33617    0.35980   1.00
H2       0.35270    0.34255    0.62670   1.00
H2       0.31679    0.37630    0.37846   1.00
H2       0.34549    0.38436    0.65541   1.00
H2       0.35954    0.38419    0.35137   1.00
H2       0.37664    0.42652    0.60045   1.00
H2       0.38764    0.42489    0.40902   1.00
H2       0.38333    0.38383    0.57275   1.00
H2       0.34425    0.41626    0.43506   1.00
H2       0.35771    0.42377    0.55255   1.00
H2       0.38970    0.40404    0.45615   1.00
H2       0.27008    0.41539    0.61958   1.00
H2       0.41221    0.32135    0.38617   1.00
H2       0.31197    0.44347    0.62975   1.00
H2       0.42551    0.37046    0.37851   1.00
H2       0.29140    0.44429    0.58261   1.00
H2       0.43149    0.34924    0.42498   1.00
C4       0.25346    0.75331    0.48025   1.00
C4       0.25499    0.75305    0.52191   1.00
C3       0.23058    0.78075    0.45897   1.00
C3       0.23711    0.78262    0.54504   1.00
C3       0.27542    0.72524    0.45854   1.00
C3       0.27509    0.72230    0.54170   1.00
C2       0.25185    0.75510    0.39595   1.00
C2       0.25642    0.75153    0.60622   1.00
C3       0.22990    0.78180    0.41811   1.00
C3       0.23759    0.78184    0.58591   1.00
C3       0.27411    0.72744    0.41696   1.00
C3       0.27472    0.72246    0.58336   1.00
H1       0.21325    0.80076    0.47237   1.00
H1       0.22339    0.80604    0.53306   1.00
C5       0.29771    0.69587    0.47835   1.00
C5       0.29504    0.69261    0.51998   1.00
H1       0.21293    0.80241    0.40451   1.00
H1       0.22401    0.80395    0.60091   1.00
H1       0.28954    0.70815    0.40052   1.00
H1       0.28846    0.70095    0.59848   1.00
C6       0.32404    0.66903    0.45515   1.00
C6       0.31261    0.65805    0.54119   1.00
H2       0.33978    0.68613    0.43345   1.00
H2       0.29200    0.64775    0.56310   1.00
H2       0.34780    0.65773    0.47286   1.00
H2       0.31505    0.63270    0.52228   1.00
C6       0.30173    0.63395    0.43606   1.00
C6       0.35359    0.66702    0.55942   1.00
H2       0.27461    0.64442    0.42292   1.00
H2       0.35287    0.69547    0.57383   1.00
C6       0.32395    0.60940    0.40459   1.00
C6       0.37058    0.63674    0.58911   1.00
H2       0.29267    0.61432    0.45949   1.00
H2       0.37437    0.67027    0.53546   1.00
C6       0.33245    0.63370    0.36735   1.00
C6       0.34599    0.63494    0.62708   1.00
C6       0.36277    0.59279    0.42074   1.00
C6       0.37321    0.59537    0.57107   1.00
C6       0.29778    0.57445    0.39245   1.00
C6       0.41247    0.64969    0.60054   1.00
H2       0.30568    0.64637    0.35558   1.00
H2       0.34304    0.66383    0.64020   1.00
H2       0.35270    0.65745    0.37330   1.00
H2       0.31679    0.62370    0.62154   1.00
H2       0.34549    0.61564    0.34459   1.00
H2       0.35954    0.61581    0.64863   1.00
H2       0.37664    0.57348    0.39955   1.00
H2       0.38764    0.57511    0.59098   1.00
H2       0.38333    0.61617    0.42725   1.00
H2       0.34425    0.58374    0.56494   1.00
H2       0.35771    0.57623    0.44745   1.00
H2       0.38970    0.59596    0.54385   1.00
H2       0.27008    0.58461    0.38042   1.00
H2       0.41221    0.67865    0.61383   1.00
H2       0.31197    0.55653    0.37025   1.00
H2       0.42551    0.62954    0.62149   1.00
H2       0.29140    0.55571    0.41739   1.00
H2       0.43149    0.65076    0.57502   1.00
C4       0.25331    0.98025    0.25346   1.00
C4       0.25305    1.02191    0.25499   1.00
C3       0.28075    0.95897    0.23058   1.00
C3       0.28262    1.04504    0.23711   1.00
C3       0.22524    0.95854    0.27542   1.00
C3       0.22230    1.04170    0.27509   1.00
C2       0.25510    0.89595    0.25185   1.00
C2       0.25153    1.10622    0.25642   1.00
C3       0.28180    0.91811    0.22990   1.00
C3       0.28184    1.08591    0.23759   1.00
C3       0.22744    0.91696    0.27411   1.00
C3       0.22246    1.08336    0.27472   1.00
H1       0.30076    0.97237    0.21325   1.00
H1       0.30604    1.03306    0.22339   1.00
C5       0.19587    0.97835    0.29771   1.00
C5       0.19261    1.01998    0.29504   1.00
H1       0.30241    0.90451    0.21293   1.00
H1       0.30395    1.10091    0.22401   1.00
H1       0.20815    0.90052    0.28954   1.00
H1       0.20095    1.09848    0.28846   1.00
C6       0.16903    0.95515    0.32404   1.00
C6       0.15805    1.04119    0.31261   1.00
H2       0.18613    0.93345    0.33978   1.00
H2       0.14775    1.06310    0.29200   1.00
H2       0.15773    0.97286    0.34780   1.00
H2       0.13270    1.02228    0.31505   1.00
C6       0.13395    0.93606    0.30173   1.00
C6       0.16702    1.05942    0.35359   1.00
H2       0.14442    0.92292    0.27461   1.00
H2       0.19547    1.07383    0.35287   1.00
C6       0.10940    0.90459    0.32395   1.00
C6       0.13674    1.08911    0.37058   1.00
H2       0.11432    0.95949    0.29267   1.00
H2       0.17027    1.03546    0.37437   1.00
C6       0.13370    0.86735    0.33245   1.00
C6       0.13494    1.12708    0.34599   1.00
C6       0.09279    0.92074    0.36277   1.00
C6       0.09537    1.07107    0.37321   1.00
C6       0.07445    0.89245    0.29778   1.00
C6       0.14969    1.10054    0.41247   1.00
H2       0.14637    0.85558    0.30568   1.00
H2       0.16383    1.14020    0.34304   1.00
H2       0.15745    0.87330    0.35270   1.00
H2       0.12370    1.12154    0.31679   1.00
H2       0.11564    0.84459    0.34549   1.00
H2       0.11581    1.14863    0.35954   1.00
H2       0.07348    0.89955    0.37664   1.00
H2       0.07511    1.09098    0.38764   1.00
H2       0.11617    0.92725    0.38333   1.00
H2       0.08374    1.06494    0.34425   1.00
H2       0.07623    0.94745    0.35771   1.00
H2       0.09596    1.04385    0.38970   1.00
H2       0.08461    0.88042    0.27008   1.00
H2       0.17865    1.11383    0.41221   1.00
H2       0.05653    0.87025    0.31197   1.00
H2       0.12954    1.12149    0.42551   1.00
H2       0.05571    0.91739    0.29140   1.00
H2       0.15076    1.07502    0.43149   1.00
C4       0.01975    0.75346    0.24669   1.00
C4       -0.02191   0.75499    0.24695   1.00
C3       0.04103    0.73058    0.21925   1.00
C3       -0.04504   0.73711    0.21738   1.00
C3       0.04146    0.77542    0.27476   1.00
C3       -0.04170   0.77509    0.27770   1.00
C2       0.10405    0.75185    0.24490   1.00
C2       -0.10622   0.75642    0.24847   1.00
C3       0.08189    0.72990    0.21820   1.00
C3       -0.08591   0.73759    0.21816   1.00
C3       0.08304    0.77411    0.27256   1.00
C3       -0.08336   0.77472    0.27754   1.00
H1       0.02763    0.71325    0.19924   1.00
H1       -0.03306   0.72339    0.19396   1.00
C5       0.02165    0.79771    0.30413   1.00
C5       -0.01998   0.79504    0.30739   1.00
H1       0.09549    0.71293    0.19759   1.00
H1       -0.10091   0.72401    0.19605   1.00
H1       0.09948    0.78954    0.29185   1.00
H1       -0.09848   0.78846    0.29905   1.00
C6       0.04485    0.82404    0.33097   1.00
C6       -0.04119   0.81261    0.34195   1.00
H2       0.06655    0.83978    0.31387   1.00
H2       -0.06310   0.79200    0.35225   1.00
H2       0.02714    0.84780    0.34227   1.00
H2       -0.02228   0.81505    0.36730   1.00
C6       0.06394    0.80173    0.36605   1.00
C6       -0.05942   0.85359    0.33298   1.00
H2       0.07708    0.77461    0.35558   1.00
H2       -0.07383   0.85287    0.30453   1.00
C6       0.09541    0.82395    0.39060   1.00
C6       -0.08911   0.87058    0.36326   1.00
H2       0.04051    0.79267    0.38568   1.00
H2       -0.03546   0.87437    0.32973   1.00
C6       0.13265    0.83245    0.36630   1.00
C6       -0.12708   0.84599    0.36506   1.00
C6       0.07926    0.86277    0.40721   1.00
C6       -0.07107   0.87321    0.40463   1.00
C6       0.10755    0.79778    0.42555   1.00
C6       -0.10054   0.91247    0.35031   1.00
H2       0.14442    0.80568    0.35363   1.00
H2       -0.14020   0.84304    0.33617   1.00
H2       0.12670    0.85270    0.34255   1.00
H2       -0.12154   0.81679    0.37630   1.00
H2       0.15541    0.84549    0.38436   1.00
H2       -0.14863   0.85954    0.38419   1.00
H2       0.10045    0.87664    0.42652   1.00
H2       -0.09098   0.88764    0.42489   1.00
H2       0.07275    0.88333    0.38383   1.00
H2       -0.06494   0.84425    0.41626   1.00
H2       0.05255    0.85771    0.42377   1.00
H2       -0.04385   0.88970    0.40404   1.00
H2       0.11958    0.77008    0.41539   1.00
H2       -0.11383   0.91221    0.32135   1.00
H2       0.12975    0.81197    0.44347   1.00
H2       -0.12149   0.92551    0.37046   1.00
H2       0.08261    0.79140    0.44429   1.00
H2       -0.07502   0.93149    0.34924   1.00
C4       0.48025    0.75346    0.25331   1.00
C4       0.52191    0.75499    0.25305   1.00
C3       0.45897    0.73058    0.28075   1.00
C3       0.54504    0.73711    0.28262   1.00
C3       0.45854    0.77542    0.22524   1.00
C3       0.54170    0.77509    0.22230   1.00
C2       0.39595    0.75185    0.25510   1.00
C2       0.60622    0.75642    0.25153   1.00
C3       0.41811    0.72990    0.28180   1.00
C3       0.58591    0.73759    0.28184   1.00
C3       0.41696    0.77411    0.22744   1.00
C3       0.58336    0.77472    0.22246   1.00
H1       0.47237    0.71325    0.30076   1.00
H1       0.53306    0.72339    0.30604   1.00
C5       0.47835    0.79771    0.19587   1.00
C5       0.51998    0.79504    0.19261   1.00
H1       0.40451    0.71293    0.30241   1.00
H1       0.60091    0.72401    0.30395   1.00
H1       0.40052    0.78954    0.20815   1.00
H1       0.59848    0.78846    0.20095   1.00
C6       0.45515    0.82404    0.16903   1.00
C6       0.54119    0.81261    0.15805   1.00
H2       0.43345    0.83978    0.18613   1.00
H2       0.56310    0.79200    0.14775   1.00
H2       0.47286    0.84780    0.15773   1.00
H2       0.52228    0.81505    0.13270   1.00
C6       0.43606    0.80173    0.13395   1.00
C6       0.55942    0.85359    0.16702   1.00
H2       0.42292    0.77461    0.14442   1.00
H2       0.57383    0.85287    0.19547   1.00
C6       0.40459    0.82395    0.10940   1.00
C6       0.58911    0.87058    0.13674   1.00
H2       0.45949    0.79267    0.11432   1.00
H2       0.53546    0.87437    0.17027   1.00
C6       0.36735    0.83245    0.13370   1.00
C6       0.62708    0.84599    0.13494   1.00
C6       0.42074    0.86277    0.09279   1.00
C6       0.57107    0.87321    0.09537   1.00
C6       0.39245    0.79778    0.07445   1.00
C6       0.60054    0.91247    0.14969   1.00
H2       0.35558    0.80568    0.14637   1.00
H2       0.64020    0.84304    0.16383   1.00
H2       0.37330    0.85270    0.15745   1.00
H2       0.62154    0.81679    0.12370   1.00
H2       0.34459    0.84549    0.11564   1.00
H2       0.64863    0.85954    0.11581   1.00
H2       0.39955    0.87664    0.07348   1.00
H2       0.59098    0.88764    0.07511   1.00
H2       0.42725    0.88333    0.11617   1.00
H2       0.56494    0.84425    0.08374   1.00
H2       0.44745    0.85771    0.07623   1.00
H2       0.54385    0.88970    0.09596   1.00
H2       0.38042    0.77008    0.08461   1.00
H2       0.61383    0.91221    0.17865   1.00
H2       0.37025    0.81197    0.05653   1.00
H2       0.62149    0.92551    0.12954   1.00
H2       0.41739    0.79140    0.05571   1.00
H2       0.57502    0.93149    0.15076   1.00
C4       0.24669    0.51975    0.25346   1.00
C4       0.24695    0.47809    0.25499   1.00
C3       0.21925    0.54103    0.23058   1.00
C3       0.21738    0.45496    0.23711   1.00
C3       0.27476    0.54146    0.27542   1.00
C3       0.27770    0.45830    0.27509   1.00
C2       0.24490    0.60405    0.25185   1.00
C2       0.24847    0.39378    0.25642   1.00
C3       0.21820    0.58189    0.22990   1.00
C3       0.21816    0.41409    0.23759   1.00
C3       0.27256    0.58304    0.27411   1.00
C3       0.27754    0.41664    0.27472   1.00
H1       0.19924    0.52763    0.21325   1.00
H1       0.19396    0.46694    0.22339   1.00
C5       0.30413    0.52165    0.29771   1.00
C5       0.30739    0.48002    0.29504   1.00
H1       0.19759    0.59549    0.21293   1.00
H1       0.19605    0.39909    0.22401   1.00
H1       0.29185    0.59948    0.28954   1.00
H1       0.29905    0.40152    0.28846   1.00
C6       0.33097    0.54485    0.32404   1.00
C6       0.34195    0.45881    0.31261   1.00
H2       0.31387    0.56655    0.33978   1.00
H2       0.35225    0.43690    0.29200   1.00
H2       0.34227    0.52714    0.34780   1.00
H2       0.36730    0.47772    0.31505   1.00
C6       0.36605    0.56394    0.30173   1.00
C6       0.33298    0.44058    0.35359   1.00
H2       0.35558    0.57708    0.27461   1.00
H2       0.30453    0.42617    0.35287   1.00
C6       0.39060    0.59541    0.32395   1.00
C6       0.36326    0.41089    0.37058   1.00
H2       0.38568    0.54051    0.29267   1.00
H2       0.32973    0.46454    0.37437   1.00
C6       0.36630    0.63265    0.33245   1.00
C6       0.36506    0.37292    0.34599   1.00
C6       0.40721    0.57926    0.36277   1.00
C6       0.40463    0.42893    0.37321   1.00
C6       0.42555    0.60755    0.29778   1.00
C6       0.35031    0.39946    0.41247   1.00
H2       0.35363    0.64442    0.30568   1.00
H2       0.33617    0.35980    0.34304   1.00
H2       0.34255    0.62670    0.35270   1.00
H2       0.37630    0.37846    0.31679   1.00
H2       0.38436    0.65541    0.34549   1.00
H2       0.38419    0.35137    0.35954   1.00
H2       0.42652    0.60045    0.37664   1.00
H2       0.42489    0.40902    0.38764   1.00
H2       0.38383    0.57275    0.38333   1.00
H2       0.41626    0.43506    0.34425   1.00
H2       0.42377    0.55255    0.35771   1.00
H2       0.40404    0.45615    0.38970   1.00
H2       0.41539    0.61958    0.27008   1.00
H2       0.32135    0.38617    0.41221   1.00
H2       0.44347    0.62975    0.31197   1.00
H2       0.37046    0.37851    0.42551   1.00
H2       0.44429    0.58261    0.29140   1.00
H2       0.34924    0.42498    0.43149   1.00
C4       0.25346    0.74669    0.01975   1.00
C4       0.25499    0.74695    -0.02191   1.00
C3       0.23058    0.71925    0.04103   1.00
C3       0.23711    0.71738    -0.04504   1.00
C3       0.27542    0.77476    0.04146   1.00
C3       0.27509    0.77770    -0.04170   1.00
C2       0.25185    0.74490    0.10405   1.00
C2       0.25642    0.74847    -0.10622   1.00
C3       0.22990    0.71820    0.08189   1.00
C3       0.23759    0.71816    -0.08591   1.00
C3       0.27411    0.77256    0.08304   1.00
C3       0.27472    0.77754    -0.08336   1.00
H1       0.21325    0.69924    0.02763   1.00
H1       0.22339    0.69396    -0.03306   1.00
C5       0.29771    0.80413    0.02165   1.00
C5       0.29504    0.80739    -0.01998   1.00
H1       0.21293    0.69759    0.09549   1.00
H1       0.22401    0.69605    -0.10091   1.00
H1       0.28954    0.79185    0.09948   1.00
H1       0.28846    0.79905    -0.09848   1.00
C6       0.32404    0.83097    0.04485   1.00
C6       0.31261    0.84195    -0.04119   1.00
H2       0.33978    0.81387    0.06655   1.00
H2       0.29200    0.85225    -0.06310   1.00
H2       0.34780    0.84227    0.02714   1.00
H2       0.31505    0.86730    -0.02228   1.00
C6       0.30173    0.86605    0.06394   1.00
C6       0.35359    0.83298    -0.05942   1.00
H2       0.27461    0.85558    0.07708   1.00
H2       0.35287    0.80453    -0.07383   1.00
C6       0.32395    0.89060    0.09541   1.00
C6       0.37058    0.86326    -0.08911   1.00
H2       0.29267    0.88568    0.04051   1.00
H2       0.37437    0.82973    -0.03546   1.00
C6       0.33245    0.86630    0.13265   1.00
C6       0.34599    0.86506    -0.12708   1.00
C6       0.36277    0.90721    0.07926   1.00
C6       0.37321    0.90463    -0.07107   1.00
C6       0.29778    0.92555    0.10755   1.00
C6       0.41247    0.85031    -0.10054   1.00
H2       0.30568    0.85363    0.14442   1.00
H2       0.34304    0.83617    -0.14020   1.00
H2       0.35270    0.84255    0.12670   1.00
H2       0.31679    0.87630    -0.12154   1.00
H2       0.34549    0.88436    0.15541   1.00
H2       0.35954    0.88419    -0.14863   1.00
H2       0.37664    0.92652    0.10045   1.00
H2       0.38764    0.92489    -0.09098   1.00
H2       0.38333    0.88383    0.07275   1.00
H2       0.34425    0.91626    -0.06494   1.00
H2       0.35771    0.92377    0.05255   1.00
H2       0.38970    0.90404    -0.04385   1.00
H2       0.27008    0.91539    0.11958   1.00
H2       0.41221    0.82135    -0.11383   1.00
H2       0.31197    0.94347    0.12975   1.00
H2       0.42551    0.87046    -0.12149   1.00
H2       0.29140    0.94429    0.08261   1.00
H2       0.43149    0.84924    -0.07502   1.00
C4       0.75346    0.25331    0.48025   1.00
C4       0.75499    0.25305    0.52191   1.00
C3       0.73058    0.28075    0.45897   1.00
C3       0.73711    0.28262    0.54504   1.00
C3       0.77542    0.22524    0.45854   1.00
C3       0.77509    0.22230    0.54170   1.00
C2       0.75185    0.25510    0.39595   1.00
C2       0.75642    0.25153    0.60622   1.00
C3       0.72990    0.28180    0.41811   1.00
C3       0.73759    0.28184    0.58591   1.00
C3       0.77411    0.22744    0.41696   1.00
C3       0.77472    0.22246    0.58336   1.00
H1       0.71325    0.30076    0.47237   1.00
H1       0.72339    0.30604    0.53306   1.00
C5       0.79771    0.19587    0.47835   1.00
C5       0.79504    0.19261    0.51998   1.00
H1       0.71293    0.30241    0.40451   1.00
H1       0.72401    0.30395    0.60091   1.00
H1       0.78954    0.20815    0.40052   1.00
H1       0.78846    0.20095    0.59848   1.00
C6       0.82404    0.16903    0.45515   1.00
C6       0.81261    0.15805    0.54119   1.00
H2       0.83978    0.18613    0.43345   1.00
H2       0.79200    0.14775    0.56310   1.00
H2       0.84780    0.15773    0.47286   1.00
H2       0.81505    0.13270    0.52228   1.00
C6       0.80173    0.13395    0.43606   1.00
C6       0.85359    0.16702    0.55942   1.00
H2       0.77461    0.14442    0.42292   1.00
H2       0.85287    0.19547    0.57383   1.00
C6       0.82395    0.10940    0.40459   1.00
C6       0.87058    0.13674    0.58911   1.00
H2       0.79267    0.11432    0.45949   1.00
H2       0.87437    0.17027    0.53546   1.00
C6       0.83245    0.13370    0.36735   1.00
C6       0.84599    0.13494    0.62708   1.00
C6       0.86277    0.09279    0.42074   1.00
C6       0.87321    0.09537    0.57107   1.00
C6       0.79778    0.07445    0.39245   1.00
C6       0.91247    0.14969    0.60054   1.00
H2       0.80568    0.14637    0.35558   1.00
H2       0.84304    0.16383    0.64020   1.00
H2       0.85270    0.15745    0.37330   1.00
H2       0.81679    0.12370    0.62154   1.00
H2       0.84549    0.11564    0.34459   1.00
H2       0.85954    0.11581    0.64863   1.00
H2       0.87664    0.07348    0.39955   1.00
H2       0.88764    0.07511    0.59098   1.00
H2       0.88333    0.11617    0.42725   1.00
H2       0.84425    0.08374    0.56494   1.00
H2       0.85771    0.07623    0.44745   1.00
H2       0.88970    0.09596    0.54385   1.00
H2       0.77008    0.08461    0.38042   1.00
H2       0.91221    0.17865    0.61383   1.00
H2       0.81197    0.05653    0.37025   1.00
H2       0.92551    0.12954    0.62149   1.00
H2       0.79140    0.05571    0.41739   1.00
H2       0.93149    0.15076    0.57502   1.00
C4       0.75331    0.48025    0.25346   1.00
C4       0.75305    0.52191    0.25499   1.00
C3       0.78075    0.45897    0.23058   1.00
C3       0.78262    0.54504    0.23711   1.00
C3       0.72524    0.45854    0.27542   1.00
C3       0.72230    0.54170    0.27509   1.00
C2       0.75510    0.39595    0.25185   1.00
C2       0.75153    0.60622    0.25642   1.00
C3       0.78180    0.41811    0.22990   1.00
C3       0.78184    0.58591    0.23759   1.00
C3       0.72744    0.41696    0.27411   1.00
C3       0.72246    0.58336    0.27472   1.00
H1       0.80076    0.47237    0.21325   1.00
H1       0.80604    0.53306    0.22339   1.00
C5       0.69587    0.47835    0.29771   1.00
C5       0.69261    0.51998    0.29504   1.00
H1       0.80241    0.40451    0.21293   1.00
H1       0.80395    0.60091    0.22401   1.00
H1       0.70815    0.40052    0.28954   1.00
H1       0.70095    0.59848    0.28846   1.00
C6       0.66903    0.45515    0.32404   1.00
C6       0.65805    0.54119    0.31261   1.00
H2       0.68613    0.43345    0.33978   1.00
H2       0.64775    0.56310    0.29200   1.00
H2       0.65773    0.47286    0.34780   1.00
H2       0.63270    0.52228    0.31505   1.00
C6       0.63395    0.43606    0.30173   1.00
C6       0.66702    0.55942    0.35359   1.00
H2       0.64442    0.42292    0.27461   1.00
H2       0.69547    0.57383    0.35287   1.00
C6       0.60940    0.40459    0.32395   1.00
C6       0.63674    0.58911    0.37058   1.00
H2       0.61432    0.45949    0.29267   1.00
H2       0.67027    0.53546    0.37437   1.00
C6       0.63370    0.36735    0.33245   1.00
C6       0.63494    0.62708    0.34599   1.00
C6       0.59279    0.42074    0.36277   1.00
C6       0.59537    0.57107    0.37321   1.00
C6       0.57445    0.39245    0.29778   1.00
C6       0.64969    0.60054    0.41247   1.00
H2       0.64637    0.35558    0.30568   1.00
H2       0.66383    0.64020    0.34304   1.00
H2       0.65745    0.37330    0.35270   1.00
H2       0.62370    0.62154    0.31679   1.00
H2       0.61564    0.34459    0.34549   1.00
H2       0.61581    0.64863    0.35954   1.00
H2       0.57348    0.39955    0.37664   1.00
H2       0.57511    0.59098    0.38764   1.00
H2       0.61617    0.42725    0.38333   1.00
H2       0.58374    0.56494    0.34425   1.00
H2       0.57623    0.44745    0.35771   1.00
H2       0.59596    0.54385    0.38970   1.00
H2       0.58461    0.38042    0.27008   1.00
H2       0.67865    0.61383    0.41221   1.00
H2       0.55653    0.37025    0.31197   1.00
H2       0.62954    0.62149    0.42551   1.00
H2       0.55571    0.41739    0.29140   1.00
H2       0.65076    0.57502    0.43149   1.00
C4       0.51975    0.25346    0.24669   1.00
C4       0.47809    0.25499    0.24695   1.00
C3       0.54103    0.23058    0.21925   1.00
C3       0.45496    0.23711    0.21738   1.00
C3       0.54146    0.27542    0.27476   1.00
C3       0.45830    0.27509    0.27770   1.00
C2       0.60405    0.25185    0.24490   1.00
C2       0.39378    0.25642    0.24847   1.00
C3       0.58189    0.22990    0.21820   1.00
C3       0.41409    0.23759    0.21816   1.00
C3       0.58304    0.27411    0.27256   1.00
C3       0.41664    0.27472    0.27754   1.00
H1       0.52763    0.21325    0.19924   1.00
H1       0.46694    0.22339    0.19396   1.00
C5       0.52165    0.29771    0.30413   1.00
C5       0.48002    0.29504    0.30739   1.00
H1       0.59549    0.21293    0.19759   1.00
H1       0.39909    0.22401    0.19605   1.00
H1       0.59948    0.28954    0.29185   1.00
H1       0.40152    0.28846    0.29905   1.00
C6       0.54485    0.32404    0.33097   1.00
C6       0.45881    0.31261    0.34195   1.00
H2       0.56655    0.33978    0.31387   1.00
H2       0.43690    0.29200    0.35225   1.00
H2       0.52714    0.34780    0.34227   1.00
H2       0.47772    0.31505    0.36730   1.00
C6       0.56394    0.30173    0.36605   1.00
C6       0.44058    0.35359    0.33298   1.00
H2       0.57708    0.27461    0.35558   1.00
H2       0.42617    0.35287    0.30453   1.00
C6       0.59541    0.32395    0.39060   1.00
C6       0.41089    0.37058    0.36326   1.00
H2       0.54051    0.29267    0.38568   1.00
H2       0.46454    0.37437    0.32973   1.00
C6       0.63265    0.33245    0.36630   1.00
C6       0.37292    0.34599    0.36506   1.00
C6       0.57926    0.36277    0.40721   1.00
C6       0.42893    0.37321    0.40463   1.00
C6       0.60755    0.29778    0.42555   1.00
C6       0.39946    0.41247    0.35031   1.00
H2       0.64442    0.30568    0.35363   1.00
H2       0.35980    0.34304    0.33617   1.00
H2       0.62670    0.35270    0.34255   1.00
H2       0.37846    0.31679    0.37630   1.00
H2       0.65541    0.34549    0.38436   1.00
H2       0.35137    0.35954    0.38419   1.00
H2       0.60045    0.37664    0.42652   1.00
H2       0.40902    0.38764    0.42489   1.00
H2       0.57275    0.38333    0.38383   1.00
H2       0.43506    0.34425    0.41626   1.00
H2       0.55255    0.35771    0.42377   1.00
H2       0.45615    0.38970    0.40404   1.00
H2       0.61958    0.27008    0.41539   1.00
H2       0.38617    0.41221    0.32135   1.00
H2       0.62975    0.31197    0.44347   1.00
H2       0.37851    0.42551    0.37046   1.00
H2       0.58261    0.29140    0.44429   1.00
H2       0.42498    0.43149    0.34924   1.00
C4       0.98025    0.25346    0.25331   1.00
C4       1.02191    0.25499    0.25305   1.00
C3       0.95897    0.23058    0.28075   1.00
C3       1.04504    0.23711    0.28262   1.00
C3       0.95854    0.27542    0.22524   1.00
C3       1.04170    0.27509    0.22230   1.00
C2       0.89595    0.25185    0.25510   1.00
C2       1.10622    0.25642    0.25153   1.00
C3       0.91811    0.22990    0.28180   1.00
C3       1.08591    0.23759    0.28184   1.00
C3       0.91696    0.27411    0.22744   1.00
C3       1.08336    0.27472    0.22246   1.00
H1       0.97237    0.21325    0.30076   1.00
H1       1.03306    0.22339    0.30604   1.00
C5       0.97835    0.29771    0.19587   1.00
C5       1.01998    0.29504    0.19261   1.00
H1       0.90451    0.21293    0.30241   1.00
H1       1.10091    0.22401    0.30395   1.00
H1       0.90052    0.28954    0.20815   1.00
H1       1.09848    0.28846    0.20095   1.00
C6       0.95515    0.32404    0.16903   1.00
C6       1.04119    0.31261    0.15805   1.00
H2       0.93345    0.33978    0.18613   1.00
H2       1.06310    0.29200    0.14775   1.00
H2       0.97286    0.34780    0.15773   1.00
H2       1.02228    0.31505    0.13270   1.00
C6       0.93606    0.30173    0.13395   1.00
C6       1.05942    0.35359    0.16702   1.00
H2       0.92292    0.27461    0.14442   1.00
H2       1.07383    0.35287    0.19547   1.00
C6       0.90459    0.32395    0.10940   1.00
C6       1.08911    0.37058    0.13674   1.00
H2       0.95949    0.29267    0.11432   1.00
H2       1.03546    0.37437    0.17027   1.00
C6       0.86735    0.33245    0.13370   1.00
C6       1.12708    0.34599    0.13494   1.00
C6       0.92074    0.36277    0.09279   1.00
C6       1.07107    0.37321    0.09537   1.00
C6       0.89245    0.29778    0.07445   1.00
C6       1.10054    0.41247    0.14969   1.00
H2       0.85558    0.30568    0.14637   1.00
H2       1.14020    0.34304    0.16383   1.00
H2       0.87330    0.35270    0.15745   1.00
H2       1.12154    0.31679    0.12370   1.00
H2       0.84459    0.34549    0.11564   1.00
H2       1.14863    0.35954    0.11581   1.00
H2       0.89955    0.37664    0.07348   1.00
H2       1.09098    0.38764    0.07511   1.00
H2       0.92725    0.38333    0.11617   1.00
H2       1.06494    0.34425    0.08374   1.00
H2       0.94745    0.35771    0.07623   1.00
H2       1.04385    0.38970    0.09596   1.00
H2       0.88042    0.27008    0.08461   1.00
H2       1.11383    0.41221    0.17865   1.00
H2       0.87025    0.31197    0.05653   1.00
H2       1.12149    0.42551    0.12954   1.00
H2       0.91739    0.29140    0.05571   1.00
H2       1.07502    0.43149    0.15076   1.00
C4       0.74669    0.01975    0.25346   1.00
C4       0.74695    -0.02191   0.25499   1.00
C3       0.71925    0.04103    0.23058   1.00
C3       0.71738    -0.04504   0.23711   1.00
C3       0.77476    0.04146    0.27542   1.00
C3       0.77770    -0.04170   0.27509   1.00
C2       0.74490    0.10405    0.25185   1.00
C2       0.74847    -0.10622   0.25642   1.00
C3       0.71820    0.08189    0.22990   1.00
C3       0.71816    -0.08591   0.23759   1.00
C3       0.77256    0.08304    0.27411   1.00
C3       0.77754    -0.08336   0.27472   1.00
H1       0.69924    0.02763    0.21325   1.00
H1       0.69396    -0.03306   0.22339   1.00
C5       0.80413    0.02165    0.29771   1.00
C5       0.80739    -0.01998   0.29504   1.00
H1       0.69759    0.09549    0.21293   1.00
H1       0.69605    -0.10091   0.22401   1.00
H1       0.79185    0.09948    0.28954   1.00
H1       0.79905    -0.09848   0.28846   1.00
C6       0.83097    0.04485    0.32404   1.00
C6       0.84195    -0.04119   0.31261   1.00
H2       0.81387    0.06655    0.33978   1.00
H2       0.85225    -0.06310   0.29200   1.00
H2       0.84227    0.02714    0.34780   1.00
H2       0.86730    -0.02228   0.31505   1.00
C6       0.86605    0.06394    0.30173   1.00
C6       0.83298    -0.05942   0.35359   1.00
H2       0.85558    0.07708    0.27461   1.00
H2       0.80453    -0.07383   0.35287   1.00
C6       0.89060    0.09541    0.32395   1.00
C6       0.86326    -0.08911   0.37058   1.00
H2       0.88568    0.04051    0.29267   1.00
H2       0.82973    -0.03546   0.37437   1.00
C6       0.86630    0.13265    0.33245   1.00
C6       0.86506    -0.12708   0.34599   1.00
C6       0.90721    0.07926    0.36277   1.00
C6       0.90463    -0.07107   0.37321   1.00
C6       0.92555    0.10755    0.29778   1.00
C6       0.85031    -0.10054   0.41247   1.00
H2       0.85363    0.14442    0.30568   1.00
H2       0.83617    -0.14020   0.34304   1.00
H2       0.84255    0.12670    0.35270   1.00
H2       0.87630    -0.12154   0.31679   1.00
H2       0.88436    0.15541    0.34549   1.00
H2       0.88419    -0.14863   0.35954   1.00
H2       0.92652    0.10045    0.37664   1.00
H2       0.92489    -0.09098   0.38764   1.00
H2       0.88383    0.07275    0.38333   1.00
H2       0.91626    -0.06494   0.34425   1.00
H2       0.92377    0.05255    0.35771   1.00
H2       0.90404    -0.04385   0.38970   1.00
H2       0.91539    0.11958    0.27008   1.00
H2       0.82135    -0.11383   0.41221   1.00
H2       0.94347    0.12975    0.31197   1.00
H2       0.87046    -0.12149   0.42551   1.00
H2       0.94429    0.08261    0.29140   1.00
H2       0.84924    -0.07502   0.43149   1.00
C4       0.75346    0.24669    0.01975   1.00
C4       0.75499    0.24695    -0.02191   1.00
C3       0.73058    0.21925    0.04103   1.00
C3       0.73711    0.21738    -0.04504   1.00
C3       0.77542    0.27476    0.04146   1.00
C3       0.77509    0.27770    -0.04170   1.00
C2       0.75185    0.24490    0.10405   1.00
C2       0.75642    0.24847    -0.10622   1.00
C3       0.72990    0.21820    0.08189   1.00
C3       0.73759    0.21816    -0.08591   1.00
C3       0.77411    0.27256    0.08304   1.00
C3       0.77472    0.27754    -0.08336   1.00
H1       0.71325    0.19924    0.02763   1.00
H1       0.72339    0.19396    -0.03306   1.00
C5       0.79771    0.30413    0.02165   1.00
C5       0.79504    0.30739    -0.01998   1.00
H1       0.71293    0.19759    0.09549   1.00
H1       0.72401    0.19605    -0.10091   1.00
H1       0.78954    0.29185    0.09948   1.00
H1       0.78846    0.29905    -0.09848   1.00
C6       0.82404    0.33097    0.04485   1.00
C6       0.81261    0.34195    -0.04119   1.00
H2       0.83978    0.31387    0.06655   1.00
H2       0.79200    0.35225    -0.06310   1.00
H2       0.84780    0.34227    0.02714   1.00
H2       0.81505    0.36730    -0.02228   1.00
C6       0.80173    0.36605    0.06394   1.00
C6       0.85359    0.33298    -0.05942   1.00
H2       0.77461    0.35558    0.07708   1.00
H2       0.85287    0.30453    -0.07383   1.00
C6       0.82395    0.39060    0.09541   1.00
C6       0.87058    0.36326    -0.08911   1.00
H2       0.79267    0.38568    0.04051   1.00
H2       0.87437    0.32973    -0.03546   1.00
C6       0.83245    0.36630    0.13265   1.00
C6       0.84599    0.36506    -0.12708   1.00
C6       0.86277    0.40721    0.07926   1.00
C6       0.87321    0.40463    -0.07107   1.00
C6       0.79778    0.42555    0.10755   1.00
C6       0.91247    0.35031    -0.10054   1.00
H2       0.80568    0.35363    0.14442   1.00
H2       0.84304    0.33617    -0.14020   1.00
H2       0.85270    0.34255    0.12670   1.00
H2       0.81679    0.37630    -0.12154   1.00
H2       0.84549    0.38436    0.15541   1.00
H2       0.85954    0.38419    -0.14863   1.00
H2       0.87664    0.42652    0.10045   1.00
H2       0.88764    0.42489    -0.09098   1.00
H2       0.88333    0.38383    0.07275   1.00
H2       0.84425    0.41626    -0.06494   1.00
H2       0.85771    0.42377    0.05255   1.00
H2       0.88970    0.40404    -0.04385   1.00
H2       0.77008    0.41539    0.11958   1.00
H2       0.91221    0.32135    -0.11383   1.00
H2       0.81197    0.44347    0.12975   1.00
H2       0.92551    0.37046    -0.12149   1.00
H2       0.79140    0.44429    0.08261   1.00
H2       0.93149    0.34924    -0.07502   1.00
C4       0.91846    0.91831    1.14525   1.00
C4       0.91999    0.91805    1.18691   1.00
C3       0.89558    0.94575    1.12397   1.00
C3       0.90211    0.94762    1.21004   1.00
C3       0.94042    0.89024    1.12354   1.00
C3       0.94009    0.88730    1.20670   1.00
C2       0.91685    0.92010    1.06095   1.00
C2       0.92142    0.91653    1.27122   1.00
C3       0.89490    0.94680    1.08311   1.00
C3       0.90259    0.94684    1.25091   1.00
C3       0.93911    0.89244    1.08196   1.00
C3       0.93972    0.88746    1.24836   1.00
H1       0.87825    0.96576    1.13737   1.00
H1       0.88839    0.97104    1.19806   1.00
C5       0.96271    0.86087    1.14335   1.00
C5       0.96004    0.85761    1.18498   1.00
H1       0.87793    0.96741    1.06951   1.00
H1       0.88901    0.96895    1.26591   1.00
H1       0.95454    0.87315    1.06552   1.00
H1       0.95346    0.86595    1.26348   1.00
C6       0.98904    0.83403    1.12015   1.00
C6       0.97761    0.82305    1.20619   1.00
H2       1.00478    0.85113    1.09845   1.00
H2       0.95700    0.81275    1.22810   1.00
H2       1.01280    0.82273    1.13786   1.00
H2       0.98005    0.79770    1.18728   1.00
C6       0.96673    0.79895    1.10106   1.00
C6       1.01859    0.83202    1.22442   1.00
H2       0.93961    0.80942    1.08792   1.00
H2       1.01787    0.86047    1.23883   1.00
C6       0.98895    0.77440    1.06959   1.00
C6       1.03558    0.80174    1.25411   1.00
H2       0.95767    0.77932    1.12449   1.00
H2       1.03937    0.83527    1.20046   1.00
C6       0.99745    0.79870    1.03235   1.00
C6       1.01099    0.79994    1.29208   1.00
C6       1.02777    0.75779    1.08574   1.00
C6       1.03821    0.76037    1.23607   1.00
C6       0.96278    0.73945    1.05745   1.00
C6       1.07747    0.81469    1.26554   1.00
H2       0.97068    0.81137    1.02058   1.00
H2       1.00804    0.82883    1.30520   1.00
H2       1.01770    0.82245    1.03830   1.00
H2       0.98179    0.78870    1.28654   1.00
H2       1.01049    0.78064    1.00959   1.00
H2       1.02454    0.78081    1.31363   1.00
H2       1.04164    0.73848    1.06455   1.00
H2       1.05264    0.74011    1.25598   1.00
H2       1.04833    0.78117    1.09225   1.00
H2       1.00925    0.74874    1.22994   1.00
H2       1.02271    0.74123    1.11245   1.00
H2       1.05470    0.76096    1.20885   1.00
H2       0.93508    0.74961    1.04542   1.00
H2       1.07721    0.84365    1.27883   1.00
H2       0.97697    0.72153    1.03525   1.00
H2       1.09051    0.79454    1.28649   1.00
H2       0.95640    0.72071    1.08239   1.00
H2       1.09649    0.81576    1.24002   1.00
C4       0.91831    1.14525    0.91846   1.00
C4       0.91805    1.18691    0.91999   1.00
C3       0.94575    1.12397    0.89558   1.00
C3       0.94762    1.21004    0.90211   1.00
C3       0.89024    1.12354    0.94042   1.00
C3       0.88730    1.20670    0.94009   1.00
C2       0.92010    1.06095    0.91685   1.00
C2       0.91653    1.27122    0.92142   1.00
C3       0.94680    1.08311    0.89490   1.00
C3       0.94684    1.25091    0.90259   1.00
C3       0.89244    1.08196    0.93911   1.00
C3       0.88746    1.24836    0.93972   1.00
H1       0.96576    1.13737    0.87825   1.00
H1       0.97104    1.19806    0.88839   1.00
C5       0.86087    1.14335    0.96271   1.00
C5       0.85761    1.18498    0.96004   1.00
H1       0.96741    1.06951    0.87793   1.00
H1       0.96895    1.26591    0.88901   1.00
H1       0.87315    1.06552    0.95454   1.00
H1       0.86595    1.26348    0.95346   1.00
C6       0.83403    1.12015    0.98904   1.00
C6       0.82305    1.20619    0.97761   1.00
H2       0.85113    1.09845    1.00478   1.00
H2       0.81275    1.22810    0.95700   1.00
H2       0.82273    1.13786    1.01280   1.00
H2       0.79770    1.18728    0.98005   1.00
C6       0.79895    1.10106    0.96673   1.00
C6       0.83202    1.22442    1.01859   1.00
H2       0.80942    1.08792    0.93961   1.00
H2       0.86047    1.23883    1.01787   1.00
C6       0.77440    1.06959    0.98895   1.00
C6       0.80174    1.25411    1.03558   1.00
H2       0.77932    1.12449    0.95767   1.00
H2       0.83527    1.20046    1.03937   1.00
C6       0.79870    1.03235    0.99745   1.00
C6       0.79994    1.29208    1.01099   1.00
C6       0.75779    1.08574    1.02777   1.00
C6       0.76037    1.23607    1.03821   1.00
C6       0.73945    1.05745    0.96278   1.00
C6       0.81469    1.26554    1.07747   1.00
H2       0.81137    1.02058    0.97068   1.00
H2       0.82883    1.30520    1.00804   1.00
H2       0.82245    1.03830    1.01770   1.00
H2       0.78870    1.28654    0.98179   1.00
H2       0.78064    1.00959    1.01049   1.00
H2       0.78081    1.31363    1.02454   1.00
H2       0.73848    1.06455    1.04164   1.00
H2       0.74011    1.25598    1.05264   1.00
H2       0.78117    1.09225    1.04833   1.00
H2       0.74874    1.22994    1.00925   1.00
H2       0.74123    1.11245    1.02271   1.00
H2       0.76096    1.20885    1.05470   1.00
H2       0.74961    1.04542    0.93508   1.00
H2       0.84365    1.27883    1.07721   1.00
H2       0.72153    1.03525    0.97697   1.00
H2       0.79454    1.28649    1.09051   1.00
H2       0.72071    1.08239    0.95640   1.00
H2       0.81576    1.24002    1.09649   1.00
C4       0.68475    0.91846    0.91169   1.00
C4       0.64309    0.91999    0.91195   1.00
C3       0.70603    0.89558    0.88425   1.00
C3       0.61996    0.90211    0.88238   1.00
C3       0.70646    0.94042    0.93976   1.00
C3       0.62330    0.94009    0.94270   1.00
C2       0.76905    0.91685    0.90990   1.00
C2       0.55878    0.92142    0.91347   1.00
C3       0.74689    0.89490    0.88320   1.00
C3       0.57909    0.90259    0.88316   1.00
C3       0.74804    0.93911    0.93756   1.00
C3       0.58164    0.93972    0.94254   1.00
H1       0.69263    0.87825    0.86424   1.00
H1       0.63194    0.88839    0.85896   1.00
C5       0.68665    0.96271    0.96913   1.00
C5       0.64502    0.96004    0.97239   1.00
H1       0.76049    0.87793    0.86259   1.00
H1       0.56409    0.88901    0.86105   1.00
H1       0.76448    0.95454    0.95685   1.00
H1       0.56652    0.95346    0.96405   1.00
C6       0.70985    0.98904    0.99597   1.00
C6       0.62381    0.97761    1.00695   1.00
H2       0.73155    1.00478    0.97887   1.00
H2       0.60190    0.95700    1.01725   1.00
H2       0.69214    1.01280    1.00727   1.00
H2       0.64272    0.98005    1.03230   1.00
C6       0.72894    0.96673    1.03105   1.00
C6       0.60558    1.01859    0.99798   1.00
H2       0.74208    0.93961    1.02058   1.00
H2       0.59117    1.01787    0.96953   1.00
C6       0.76041    0.98895    1.05560   1.00
C6       0.57589    1.03558    1.02826   1.00
H2       0.70551    0.95767    1.05068   1.00
H2       0.62954    1.03937    0.99473   1.00
C6       0.79765    0.99745    1.03130   1.00
C6       0.53792    1.01099    1.03006   1.00
C6       0.74426    1.02777    1.07221   1.00
C6       0.59393    1.03821    1.06963   1.00
C6       0.77255    0.96278    1.09055   1.00
C6       0.56446    1.07747    1.01531   1.00
H2       0.80942    0.97068    1.01863   1.00
H2       0.52480    1.00804    1.00117   1.00
H2       0.79170    1.01770    1.00755   1.00
H2       0.54346    0.98179    1.04130   1.00
H2       0.82041    1.01049    1.04936   1.00
H2       0.51637    1.02454    1.04919   1.00
H2       0.76545    1.04164    1.09152   1.00
H2       0.57402    1.05264    1.08989   1.00
H2       0.73775    1.04833    1.04883   1.00
H2       0.60006    1.00925    1.08126   1.00
H2       0.71755    1.02271    1.08877   1.00
H2       0.62115    1.05470    1.06904   1.00
H2       0.78458    0.93508    1.08039   1.00
H2       0.55117    1.07721    0.98635   1.00
H2       0.79475    0.97697    1.10847   1.00
H2       0.54351    1.09051    1.03546   1.00
H2       0.74761    0.95640    1.10929   1.00
H2       0.58998    1.09649    1.01424   1.00
C4       1.14525    0.91846    0.91831   1.00
C4       1.18691    0.91999    0.91805   1.00
C3       1.12397    0.89558    0.94575   1.00
C3       1.21004    0.90211    0.94762   1.00
C3       1.12354    0.94042    0.89024   1.00
C3       1.20670    0.94009    0.88730   1.00
C2       1.06095    0.91685    0.92010   1.00
C2       1.27122    0.92142    0.91653   1.00
C3       1.08311    0.89490    0.94680   1.00
C3       1.25091    0.90259    0.94684   1.00
C3       1.08196    0.93911    0.89244   1.00
C3       1.24836    0.93972    0.88746   1.00
H1       1.13737    0.87825    0.96576   1.00
H1       1.19806    0.88839    0.97104   1.00
C5       1.14335    0.96271    0.86087   1.00
C5       1.18498    0.96004    0.85761   1.00
H1       1.06951    0.87793    0.96741   1.00
H1       1.26591    0.88901    0.96895   1.00
H1       1.06552    0.95454    0.87315   1.00
H1       1.26348    0.95346    0.86595   1.00
C6       1.12015    0.98904    0.83403   1.00
C6       1.20619    0.97761    0.82305   1.00
H2       1.09845    1.00478    0.85113   1.00
H2       1.22810    0.95700    0.81275   1.00
H2       1.13786    1.01280    0.82273   1.00
H2       1.18728    0.98005    0.79770   1.00
C6       1.10106    0.96673    0.79895   1.00
C6       1.22442    1.01859    0.83202   1.00
H2       1.08792    0.93961    0.80942   1.00
H2       1.23883    1.01787    0.86047   1.00
C6       1.06959    0.98895    0.77440   1.00
C6       1.25411    1.03558    0.80174   1.00
H2       1.12449    0.95767    0.77932   1.00
H2       1.20046    1.03937    0.83527   1.00
C6       1.03235    0.99745    0.79870   1.00
C6       1.29208    1.01099    0.79994   1.00
C6       1.08574    1.02777    0.75779   1.00
C6       1.23607    1.03821    0.76037   1.00
C6       1.05745    0.96278    0.73945   1.00
C6       1.26554    1.07747    0.81469   1.00
H2       1.02058    0.97068    0.81137   1.00
H2       1.30520    1.00804    0.82883   1.00
H2       1.03830    1.01770    0.82245   1.00
H2       1.28654    0.98179    0.78870   1.00
H2       1.00959    1.01049    0.78064   1.00
H2       1.31363    1.02454    0.78081   1.00
H2       1.06455    1.04164    0.73848   1.00
H2       1.25598    1.05264    0.74011   1.00
H2       1.09225    1.04833    0.78117   1.00
H2       1.22994    1.00925    0.74874   1.00
H2       1.11245    1.02271    0.74123   1.00
H2       1.20885    1.05470    0.76096   1.00
H2       1.04542    0.93508    0.74961   1.00
H2       1.27883    1.07721    0.84365   1.00
H2       1.03525    0.97697    0.72153   1.00
H2       1.28649    1.09051    0.79454   1.00
H2       1.08239    0.95640    0.72071   1.00
H2       1.24002    1.09649    0.81576   1.00
C4       0.91169    0.68475    0.91846   1.00
C4       0.91195    0.64309    0.91999   1.00
C3       0.88425    0.70603    0.89558   1.00
C3       0.88238    0.61996    0.90211   1.00
C3       0.93976    0.70646    0.94042   1.00
C3       0.94270    0.62330    0.94009   1.00
C2       0.90990    0.76905    0.91685   1.00
C2       0.91347    0.55878    0.92142   1.00
C3       0.88320    0.74689    0.89490   1.00
C3       0.88316    0.57909    0.90259   1.00
C3       0.93756    0.74804    0.93911   1.00
C3       0.94254    0.58164    0.93972   1.00
H1       0.86424    0.69263    0.87825   1.00
H1       0.85896    0.63194    0.88839   1.00
C5       0.96913    0.68665    0.96271   1.00
C5       0.97239    0.64502    0.96004   1.00
H1       0.86259    0.76049    0.87793   1.00
H1       0.86105    0.56409    0.88901   1.00
H1       0.95685    0.76448    0.95454   1.00
H1       0.96405    0.56652    0.95346   1.00
C6       0.99597    0.70985    0.98904   1.00
C6       1.00695    0.62381    0.97761   1.00
H2       0.97887    0.73155    1.00478   1.00
H2       1.01725    0.60190    0.95700   1.00
H2       1.00727    0.69214    1.01280   1.00
H2       1.03230    0.64272    0.98005   1.00
C6       1.03105    0.72894    0.96673   1.00
C6       0.99798    0.60558    1.01859   1.00
H2       1.02058    0.74208    0.93961   1.00
H2       0.96953    0.59117    1.01787   1.00
C6       1.05560    0.76041    0.98895   1.00
C6       1.02826    0.57589    1.03558   1.00
H2       1.05068    0.70551    0.95767   1.00
H2       0.99473    0.62954    1.03937   1.00
C6       1.03130    0.79765    0.99745   1.00
C6       1.03006    0.53792    1.01099   1.00
C6       1.07221    0.74426    1.02777   1.00
C6       1.06963    0.59393    1.03821   1.00
C6       1.09055    0.77255    0.96278   1.00
C6       1.01531    0.56446    1.07747   1.00
H2       1.01863    0.80942    0.97068   1.00
H2       1.00117    0.52480    1.00804   1.00
H2       1.00755    0.79170    1.01770   1.00
H2       1.04130    0.54346    0.98179   1.00
H2       1.04936    0.82041    1.01049   1.00
H2       1.04919    0.51637    1.02454   1.00
H2       1.09152    0.76545    1.04164   1.00
H2       1.08989    0.57402    1.05264   1.00
H2       1.04883    0.73775    1.04833   1.00
H2       1.08126    0.60006    1.00925   1.00
H2       1.08877    0.71755    1.02271   1.00
H2       1.06904    0.62115    1.05470   1.00
H2       1.08039    0.78458    0.93508   1.00
H2       0.98635    0.55117    1.07721   1.00
H2       1.10847    0.79475    0.97697   1.00
H2       1.03546    0.54351    1.09051   1.00
H2       1.10929    0.74761    0.95640   1.00
H2       1.01424    0.58998    1.09649   1.00
C4       0.91846    0.91169    0.68475   1.00
C4       0.91999    0.91195    0.64309   1.00
C3       0.89558    0.88425    0.70603   1.00
C3       0.90211    0.88238    0.61996   1.00
C3       0.94042    0.93976    0.70646   1.00
C3       0.94009    0.94270    0.62330   1.00
C2       0.91685    0.90990    0.76905   1.00
C2       0.92142    0.91347    0.55878   1.00
C3       0.89490    0.88320    0.74689   1.00
C3       0.90259    0.88316    0.57909   1.00
C3       0.93911    0.93756    0.74804   1.00
C3       0.93972    0.94254    0.58164   1.00
H1       0.87825    0.86424    0.69263   1.00
H1       0.88839    0.85896    0.63194   1.00
C5       0.96271    0.96913    0.68665   1.00
C5       0.96004    0.97239    0.64502   1.00
H1       0.87793    0.86259    0.76049   1.00
H1       0.88901    0.86105    0.56409   1.00
H1       0.95454    0.95685    0.76448   1.00
H1       0.95346    0.96405    0.56652   1.00
C6       0.98904    0.99597    0.70985   1.00
C6       0.97761    1.00695    0.62381   1.00
H2       1.00478    0.97887    0.73155   1.00
H2       0.95700    1.01725    0.60190   1.00
H2       1.01280    1.00727    0.69214   1.00
H2       0.98005    1.03230    0.64272   1.00
C6       0.96673    1.03105    0.72894   1.00
C6       1.01859    0.99798    0.60558   1.00
H2       0.93961    1.02058    0.74208   1.00
H2       1.01787    0.96953    0.59117   1.00
C6       0.98895    1.05560    0.76041   1.00
C6       1.03558    1.02826    0.57589   1.00
H2       0.95767    1.05068    0.70551   1.00
H2       1.03937    0.99473    0.62954   1.00
C6       0.99745    1.03130    0.79765   1.00
C6       1.01099    1.03006    0.53792   1.00
C6       1.02777    1.07221    0.74426   1.00
C6       1.03821    1.06963    0.59393   1.00
C6       0.96278    1.09055    0.77255   1.00
C6       1.07747    1.01531    0.56446   1.00
H2       0.97068    1.01863    0.80942   1.00
H2       1.00804    1.00117    0.52480   1.00
H2       1.01770    1.00755    0.79170   1.00
H2       0.98179    1.04130    0.54346   1.00
H2       1.01049    1.04936    0.82041   1.00
H2       1.02454    1.04919    0.51637   1.00
H2       1.04164    1.09152    0.76545   1.00
H2       1.05264    1.08989    0.57402   1.00
H2       1.04833    1.04883    0.73775   1.00
H2       1.00925    1.08126    0.60006   1.00
H2       1.02271    1.08877    0.71755   1.00
H2       1.05470    1.06904    0.62115   1.00
H2       0.93508    1.08039    0.78458   1.00
H2       1.07721    0.98635    0.55117   1.00
H2       0.97697    1.10847    0.79475   1.00
H2       1.09051    1.03546    0.54351   1.00
H2       0.95640    1.10929    0.74761   1.00
H2       1.09649    1.01424    0.58998   1.00
C4       0.41846    0.41831    1.14525   1.00
C4       0.41999    0.41805    1.18691   1.00
C3       0.39558    0.44575    1.12397   1.00
C3       0.40211    0.44762    1.21004   1.00
C3       0.44042    0.39024    1.12354   1.00
C3       0.44009    0.38730    1.20670   1.00
C2       0.41685    0.42010    1.06095   1.00
C2       0.42142    0.41653    1.27122   1.00
C3       0.39490    0.44680    1.08311   1.00
C3       0.40259    0.44684    1.25091   1.00
C3       0.43911    0.39244    1.08196   1.00
C3       0.43972    0.38746    1.24836   1.00
H1       0.37825    0.46576    1.13737   1.00
H1       0.38839    0.47104    1.19806   1.00
C5       0.46271    0.36087    1.14335   1.00
C5       0.46004    0.35761    1.18498   1.00
H1       0.37793    0.46741    1.06951   1.00
H1       0.38901    0.46895    1.26591   1.00
H1       0.45454    0.37315    1.06552   1.00
H1       0.45346    0.36595    1.26348   1.00
C6       0.48904    0.33403    1.12015   1.00
C6       0.47761    0.32305    1.20619   1.00
H2       0.50478    0.35113    1.09845   1.00
H2       0.45700    0.31275    1.22810   1.00
H2       0.51280    0.32273    1.13786   1.00
H2       0.48005    0.29770    1.18728   1.00
C6       0.46673    0.29895    1.10106   1.00
C6       0.51859    0.33202    1.22442   1.00
H2       0.43961    0.30942    1.08792   1.00
H2       0.51787    0.36047    1.23883   1.00
C6       0.48895    0.27440    1.06959   1.00
C6       0.53558    0.30174    1.25411   1.00
H2       0.45767    0.27932    1.12449   1.00
H2       0.53937    0.33527    1.20046   1.00
C6       0.49745    0.29870    1.03235   1.00
C6       0.51099    0.29994    1.29208   1.00
C6       0.52777    0.25779    1.08574   1.00
C6       0.53821    0.26037    1.23607   1.00
C6       0.46278    0.23945    1.05745   1.00
C6       0.57747    0.31469    1.26554   1.00
H2       0.47068    0.31137    1.02058   1.00
H2       0.50804    0.32883    1.30520   1.00
H2       0.51770    0.32245    1.03830   1.00
H2       0.48179    0.28870    1.28654   1.00
H2       0.51049    0.28064    1.00959   1.00
H2       0.52454    0.28081    1.31363   1.00
H2       0.54164    0.23848    1.06455   1.00
H2       0.55264    0.24011    1.25598   1.00
H2       0.54833    0.28117    1.09225   1.00
H2       0.50925    0.24874    1.22994   1.00
H2       0.52271    0.24123    1.11245   1.00
H2       0.55470    0.26096    1.20885   1.00
H2       0.43508    0.24961    1.04542   1.00
H2       0.57721    0.34365    1.27883   1.00
H2       0.47697    0.22153    1.03525   1.00
H2       0.59051    0.29454    1.28649   1.00
H2       0.45640    0.22071    1.08239   1.00
H2       0.59649    0.31576    1.24002   1.00
C4       0.41831    0.64525    0.91846   1.00
C4       0.41805    0.68691    0.91999   1.00
C3       0.44575    0.62397    0.89558   1.00
C3       0.44762    0.71004    0.90211   1.00
C3       0.39024    0.62354    0.94042   1.00
C3       0.38730    0.70670    0.94009   1.00
C2       0.42010    0.56095    0.91685   1.00
C2       0.41653    0.77122    0.92142   1.00
C3       0.44680    0.58311    0.89490   1.00
C3       0.44684    0.75091    0.90259   1.00
C3       0.39244    0.58196    0.93911   1.00
C3       0.38746    0.74836    0.93972   1.00
H1       0.46576    0.63737    0.87825   1.00
H1       0.47104    0.69806    0.88839   1.00
C5       0.36087    0.64335    0.96271   1.00
C5       0.35761    0.68498    0.96004   1.00
H1       0.46741    0.56951    0.87793   1.00
H1       0.46895    0.76591    0.88901   1.00
H1       0.37315    0.56552    0.95454   1.00
H1       0.36595    0.76348    0.95346   1.00
C6       0.33403    0.62015    0.98904   1.00
C6       0.32305    0.70619    0.97761   1.00
H2       0.35113    0.59845    1.00478   1.00
H2       0.31275    0.72810    0.95700   1.00
H2       0.32273    0.63786    1.01280   1.00
H2       0.29770    0.68728    0.98005   1.00
C6       0.29895    0.60106    0.96673   1.00
C6       0.33202    0.72442    1.01859   1.00
H2       0.30942    0.58792    0.93961   1.00
H2       0.36047    0.73883    1.01787   1.00
C6       0.27440    0.56959    0.98895   1.00
C6       0.30174    0.75411    1.03558   1.00
H2       0.27932    0.62449    0.95767   1.00
H2       0.33527    0.70046    1.03937   1.00
C6       0.29870    0.53235    0.99745   1.00
C6       0.29994    0.79208    1.01099   1.00
C6       0.25779    0.58574    1.02777   1.00
C6       0.26037    0.73607    1.03821   1.00
C6       0.23945    0.55745    0.96278   1.00
C6       0.31469    0.76554    1.07747   1.00
H2       0.31137    0.52058    0.97068   1.00
H2       0.32883    0.80520    1.00804   1.00
H2       0.32245    0.53830    1.01770   1.00
H2       0.28870    0.78654    0.98179   1.00
H2       0.28064    0.50959    1.01049   1.00
H2       0.28081    0.81363    1.02454   1.00
H2       0.23848    0.56455    1.04164   1.00
H2       0.24011    0.75598    1.05264   1.00
H2       0.28117    0.59225    1.04833   1.00
H2       0.24874    0.72994    1.00925   1.00
H2       0.24123    0.61245    1.02271   1.00
H2       0.26096    0.70885    1.05470   1.00
H2       0.24961    0.54542    0.93508   1.00
H2       0.34365    0.77883    1.07721   1.00
H2       0.22153    0.53525    0.97697   1.00
H2       0.29454    0.78649    1.09051   1.00
H2       0.22071    0.58239    0.95640   1.00
H2       0.31576    0.74002    1.09649   1.00
C4       0.18475    0.41846    0.91169   1.00
C4       0.14309    0.41999    0.91195   1.00
C3       0.20603    0.39558    0.88425   1.00
C3       0.11996    0.40211    0.88238   1.00
C3       0.20646    0.44042    0.93976   1.00
C3       0.12330    0.44009    0.94270   1.00
C2       0.26905    0.41685    0.90990   1.00
C2       0.05878    0.42142    0.91347   1.00
C3       0.24689    0.39490    0.88320   1.00
C3       0.07909    0.40259    0.88316   1.00
C3       0.24804    0.43911    0.93756   1.00
C3       0.08164    0.43972    0.94254   1.00
H1       0.19263    0.37825    0.86424   1.00
H1       0.13194    0.38839    0.85896   1.00
C5       0.18665    0.46271    0.96913   1.00
C5       0.14502    0.46004    0.97239   1.00
H1       0.26049    0.37793    0.86259   1.00
H1       0.06409    0.38901    0.86105   1.00
H1       0.26448    0.45454    0.95685   1.00
H1       0.06652    0.45346    0.96405   1.00
C6       0.20985    0.48904    0.99597   1.00
C6       0.12381    0.47761    1.00695   1.00
H2       0.23155    0.50478    0.97887   1.00
H2       0.10190    0.45700    1.01725   1.00
H2       0.19214    0.51280    1.00727   1.00
H2       0.14272    0.48005    1.03230   1.00
C6       0.22894    0.46673    1.03105   1.00
C6       0.10558    0.51859    0.99798   1.00
H2       0.24208    0.43961    1.02058   1.00
H2       0.09117    0.51787    0.96953   1.00
C6       0.26041    0.48895    1.05560   1.00
C6       0.07589    0.53558    1.02826   1.00
H2       0.20551    0.45767    1.05068   1.00
H2       0.12954    0.53937    0.99473   1.00
C6       0.29765    0.49745    1.03130   1.00
C6       0.03792    0.51099    1.03006   1.00
C6       0.24426    0.52777    1.07221   1.00
C6       0.09393    0.53821    1.06963   1.00
C6       0.27255    0.46278    1.09055   1.00
C6       0.06446    0.57747    1.01531   1.00
H2       0.30942    0.47068    1.01863   1.00
H2       0.02480    0.50804    1.00117   1.00
H2       0.29170    0.51770    1.00755   1.00
H2       0.04346    0.48179    1.04130   1.00
H2       0.32041    0.51049    1.04936   1.00
H2       0.01637    0.52454    1.04919   1.00
H2       0.26545    0.54164    1.09152   1.00
H2       0.07402    0.55264    1.08989   1.00
H2       0.23775    0.54833    1.04883   1.00
H2       0.10006    0.50925    1.08126   1.00
H2       0.21755    0.52271    1.08877   1.00
H2       0.12115    0.55470    1.06904   1.00
H2       0.28458    0.43508    1.08039   1.00
H2       0.05117    0.57721    0.98635   1.00
H2       0.29475    0.47697    1.10847   1.00
H2       0.04351    0.59051    1.03546   1.00
H2       0.24761    0.45640    1.10929   1.00
H2       0.08998    0.59649    1.01424   1.00
C4       0.64525    0.41846    0.91831   1.00
C4       0.68691    0.41999    0.91805   1.00
C3       0.62397    0.39558    0.94575   1.00
C3       0.71004    0.40211    0.94762   1.00
C3       0.62354    0.44042    0.89024   1.00
C3       0.70670    0.44009    0.88730   1.00
C2       0.56095    0.41685    0.92010   1.00
C2       0.77122    0.42142    0.91653   1.00
C3       0.58311    0.39490    0.94680   1.00
C3       0.75091    0.40259    0.94684   1.00
C3       0.58196    0.43911    0.89244   1.00
C3       0.74836    0.43972    0.88746   1.00
H1       0.63737    0.37825    0.96576   1.00
H1       0.69806    0.38839    0.97104   1.00
C5       0.64335    0.46271    0.86087   1.00
C5       0.68498    0.46004    0.85761   1.00
H1       0.56951    0.37793    0.96741   1.00
H1       0.76591    0.38901    0.96895   1.00
H1       0.56552    0.45454    0.87315   1.00
H1       0.76348    0.45346    0.86595   1.00
C6       0.62015    0.48904    0.83403   1.00
C6       0.70619    0.47761    0.82305   1.00
H2       0.59845    0.50478    0.85113   1.00
H2       0.72810    0.45700    0.81275   1.00
H2       0.63786    0.51280    0.82273   1.00
H2       0.68728    0.48005    0.79770   1.00
C6       0.60106    0.46673    0.79895   1.00
C6       0.72442    0.51859    0.83202   1.00
H2       0.58792    0.43961    0.80942   1.00
H2       0.73883    0.51787    0.86047   1.00
C6       0.56959    0.48895    0.77440   1.00
C6       0.75411    0.53558    0.80174   1.00
H2       0.62449    0.45767    0.77932   1.00
H2       0.70046    0.53937    0.83527   1.00
C6       0.53235    0.49745    0.79870   1.00
C6       0.79208    0.51099    0.79994   1.00
C6       0.58574    0.52777    0.75779   1.00
C6       0.73607    0.53821    0.76037   1.00
C6       0.55745    0.46278    0.73945   1.00
C6       0.76554    0.57747    0.81469   1.00
H2       0.52058    0.47068    0.81137   1.00
H2       0.80520    0.50804    0.82883   1.00
H2       0.53830    0.51770    0.82245   1.00
H2       0.78654    0.48179    0.78870   1.00
H2       0.50959    0.51049    0.78064   1.00
H2       0.81363    0.52454    0.78081   1.00
H2       0.56455    0.54164    0.73848   1.00
H2       0.75598    0.55264    0.74011   1.00
H2       0.59225    0.54833    0.78117   1.00
H2       0.72994    0.50925    0.74874   1.00
H2       0.61245    0.52271    0.74123   1.00
H2       0.70885    0.55470    0.76096   1.00
H2       0.54542    0.43508    0.74961   1.00
H2       0.77883    0.57721    0.84365   1.00
H2       0.53525    0.47697    0.72153   1.00
H2       0.78649    0.59051    0.79454   1.00
H2       0.58239    0.45640    0.72071   1.00
H2       0.74002    0.59649    0.81576   1.00
C4       0.41169    0.18475    0.91846   1.00
C4       0.41195    0.14309    0.91999   1.00
C3       0.38425    0.20603    0.89558   1.00
C3       0.38238    0.11996    0.90211   1.00
C3       0.43976    0.20646    0.94042   1.00
C3       0.44270    0.12330    0.94009   1.00
C2       0.40990    0.26905    0.91685   1.00
C2       0.41347    0.05878    0.92142   1.00
C3       0.38320    0.24689    0.89490   1.00
C3       0.38316    0.07909    0.90259   1.00
C3       0.43756    0.24804    0.93911   1.00
C3       0.44254    0.08164    0.93972   1.00
H1       0.36424    0.19263    0.87825   1.00
H1       0.35896    0.13194    0.88839   1.00
C5       0.46913    0.18665    0.96271   1.00
C5       0.47239    0.14502    0.96004   1.00
H1       0.36259    0.26049    0.87793   1.00
H1       0.36105    0.06409    0.88901   1.00
H1       0.45685    0.26448    0.95454   1.00
H1       0.46405    0.06652    0.95346   1.00
C6       0.49597    0.20985    0.98904   1.00
C6       0.50695    0.12381    0.97761   1.00
H2       0.47887    0.23155    1.00478   1.00
H2       0.51725    0.10190    0.95700   1.00
H2       0.50727    0.19214    1.01280   1.00
H2       0.53230    0.14272    0.98005   1.00
C6       0.53105    0.22894    0.96673   1.00
C6       0.49798    0.10558    1.01859   1.00
H2       0.52058    0.24208    0.93961   1.00
H2       0.46953    0.09117    1.01787   1.00
C6       0.55560    0.26041    0.98895   1.00
C6       0.52826    0.07589    1.03558   1.00
H2       0.55068    0.20551    0.95767   1.00
H2       0.49473    0.12954    1.03937   1.00
C6       0.53130    0.29765    0.99745   1.00
C6       0.53006    0.03792    1.01099   1.00
C6       0.57221    0.24426    1.02777   1.00
C6       0.56963    0.09393    1.03821   1.00
C6       0.59055    0.27255    0.96278   1.00
C6       0.51531    0.06446    1.07747   1.00
H2       0.51863    0.30942    0.97068   1.00
H2       0.50117    0.02480    1.00804   1.00
H2       0.50755    0.29170    1.01770   1.00
H2       0.54130    0.04346    0.98179   1.00
H2       0.54936    0.32041    1.01049   1.00
H2       0.54919    0.01637    1.02454   1.00
H2       0.59152    0.26545    1.04164   1.00
H2       0.58989    0.07402    1.05264   1.00
H2       0.54883    0.23775    1.04833   1.00
H2       0.58126    0.10006    1.00925   1.00
H2       0.58877    0.21755    1.02271   1.00
H2       0.56904    0.12115    1.05470   1.00
H2       0.58039    0.28458    0.93508   1.00
H2       0.48635    0.05117    1.07721   1.00
H2       0.60847    0.29475    0.97697   1.00
H2       0.53546    0.04351    1.09051   1.00
H2       0.60929    0.24761    0.95640   1.00
H2       0.51424    0.08998    1.09649   1.00
C4       0.41846    0.41169    0.68475   1.00
C4       0.41999    0.41195    0.64309   1.00
C3       0.39558    0.38425    0.70603   1.00
C3       0.40211    0.38238    0.61996   1.00
C3       0.44042    0.43976    0.70646   1.00
C3       0.44009    0.44270    0.62330   1.00
C2       0.41685    0.40990    0.76905   1.00
C2       0.42142    0.41347    0.55878   1.00
C3       0.39490    0.38320    0.74689   1.00
C3       0.40259    0.38316    0.57909   1.00
C3       0.43911    0.43756    0.74804   1.00
C3       0.43972    0.44254    0.58164   1.00
H1       0.37825    0.36424    0.69263   1.00
H1       0.38839    0.35896    0.63194   1.00
C5       0.46271    0.46913    0.68665   1.00
C5       0.46004    0.47239    0.64502   1.00
H1       0.37793    0.36259    0.76049   1.00
H1       0.38901    0.36105    0.56409   1.00
H1       0.45454    0.45685    0.76448   1.00
H1       0.45346    0.46405    0.56652   1.00
C6       0.48904    0.49597    0.70985   1.00
C6       0.47761    0.50695    0.62381   1.00
H2       0.50478    0.47887    0.73155   1.00
H2       0.45700    0.51725    0.60190   1.00
H2       0.51280    0.50727    0.69214   1.00
H2       0.48005    0.53230    0.64272   1.00
C6       0.46673    0.53105    0.72894   1.00
C6       0.51859    0.49798    0.60558   1.00
H2       0.43961    0.52058    0.74208   1.00
H2       0.51787    0.46953    0.59117   1.00
C6       0.48895    0.55560    0.76041   1.00
C6       0.53558    0.52826    0.57589   1.00
H2       0.45767    0.55068    0.70551   1.00
H2       0.53937    0.49473    0.62954   1.00
C6       0.49745    0.53130    0.79765   1.00
C6       0.51099    0.53006    0.53792   1.00
C6       0.52777    0.57221    0.74426   1.00
C6       0.53821    0.56963    0.59393   1.00
C6       0.46278    0.59055    0.77255   1.00
C6       0.57747    0.51531    0.56446   1.00
H2       0.47068    0.51863    0.80942   1.00
H2       0.50804    0.50117    0.52480   1.00
H2       0.51770    0.50755    0.79170   1.00
H2       0.48179    0.54130    0.54346   1.00
H2       0.51049    0.54936    0.82041   1.00
H2       0.52454    0.54919    0.51637   1.00
H2       0.54164    0.59152    0.76545   1.00
H2       0.55264    0.58989    0.57402   1.00
H2       0.54833    0.54883    0.73775   1.00
H2       0.50925    0.58126    0.60006   1.00
H2       0.52271    0.58877    0.71755   1.00
H2       0.55470    0.56904    0.62115   1.00
H2       0.43508    0.58039    0.78458   1.00
H2       0.57721    0.48635    0.55117   1.00
H2       0.47697    0.60847    0.79475   1.00
H2       0.59051    0.53546    0.54351   1.00
H2       0.45640    0.60929    0.74761   1.00
H2       0.59649    0.51424    0.58998   1.00
C4       0.41846    0.91831    0.64525   1.00
C4       0.41999    0.91805    0.68691   1.00
C3       0.39558    0.94575    0.62397   1.00
C3       0.40211    0.94762    0.71004   1.00
C3       0.44042    0.89024    0.62354   1.00
C3       0.44009    0.88730    0.70670   1.00
C2       0.41685    0.92010    0.56095   1.00
C2       0.42142    0.91653    0.77122   1.00
C3       0.39490    0.94680    0.58311   1.00
C3       0.40259    0.94684    0.75091   1.00
C3       0.43911    0.89244    0.58196   1.00
C3       0.43972    0.88746    0.74836   1.00
H1       0.37825    0.96576    0.63737   1.00
H1       0.38839    0.97104    0.69806   1.00
C5       0.46271    0.86087    0.64335   1.00
C5       0.46004    0.85761    0.68498   1.00
H1       0.37793    0.96741    0.56951   1.00
H1       0.38901    0.96895    0.76591   1.00
H1       0.45454    0.87315    0.56552   1.00
H1       0.45346    0.86595    0.76348   1.00
C6       0.48904    0.83403    0.62015   1.00
C6       0.47761    0.82305    0.70619   1.00
H2       0.50478    0.85113    0.59845   1.00
H2       0.45700    0.81275    0.72810   1.00
H2       0.51280    0.82273    0.63786   1.00
H2       0.48005    0.79770    0.68728   1.00
C6       0.46673    0.79895    0.60106   1.00
C6       0.51859    0.83202    0.72442   1.00
H2       0.43961    0.80942    0.58792   1.00
H2       0.51787    0.86047    0.73883   1.00
C6       0.48895    0.77440    0.56959   1.00
C6       0.53558    0.80174    0.75411   1.00
H2       0.45767    0.77932    0.62449   1.00
H2       0.53937    0.83527    0.70046   1.00
C6       0.49745    0.79870    0.53235   1.00
C6       0.51099    0.79994    0.79208   1.00
C6       0.52777    0.75779    0.58574   1.00
C6       0.53821    0.76037    0.73607   1.00
C6       0.46278    0.73945    0.55745   1.00
C6       0.57747    0.81469    0.76554   1.00
H2       0.47068    0.81137    0.52058   1.00
H2       0.50804    0.82883    0.80520   1.00
H2       0.51770    0.82245    0.53830   1.00
H2       0.48179    0.78870    0.78654   1.00
H2       0.51049    0.78064    0.50959   1.00
H2       0.52454    0.78081    0.81363   1.00
H2       0.54164    0.73848    0.56455   1.00
H2       0.55264    0.74011    0.75598   1.00
H2       0.54833    0.78117    0.59225   1.00
H2       0.50925    0.74874    0.72994   1.00
H2       0.52271    0.74123    0.61245   1.00
H2       0.55470    0.76096    0.70885   1.00
H2       0.43508    0.74961    0.54542   1.00
H2       0.57721    0.84365    0.77883   1.00
H2       0.47697    0.72153    0.53525   1.00
H2       0.59051    0.79454    0.78649   1.00
H2       0.45640    0.72071    0.58239   1.00
H2       0.59649    0.81576    0.74002   1.00
C4       0.41831    1.14525    0.41846   1.00
C4       0.41805    1.18691    0.41999   1.00
C3       0.44575    1.12397    0.39558   1.00
C3       0.44762    1.21004    0.40211   1.00
C3       0.39024    1.12354    0.44042   1.00
C3       0.38730    1.20670    0.44009   1.00
C2       0.42010    1.06095    0.41685   1.00
C2       0.41653    1.27122    0.42142   1.00
C3       0.44680    1.08311    0.39490   1.00
C3       0.44684    1.25091    0.40259   1.00
C3       0.39244    1.08196    0.43911   1.00
C3       0.38746    1.24836    0.43972   1.00
H1       0.46576    1.13737    0.37825   1.00
H1       0.47104    1.19806    0.38839   1.00
C5       0.36087    1.14335    0.46271   1.00
C5       0.35761    1.18498    0.46004   1.00
H1       0.46741    1.06951    0.37793   1.00
H1       0.46895    1.26591    0.38901   1.00
H1       0.37315    1.06552    0.45454   1.00
H1       0.36595    1.26348    0.45346   1.00
C6       0.33403    1.12015    0.48904   1.00
C6       0.32305    1.20619    0.47761   1.00
H2       0.35113    1.09845    0.50478   1.00
H2       0.31275    1.22810    0.45700   1.00
H2       0.32273    1.13786    0.51280   1.00
H2       0.29770    1.18728    0.48005   1.00
C6       0.29895    1.10106    0.46673   1.00
C6       0.33202    1.22442    0.51859   1.00
H2       0.30942    1.08792    0.43961   1.00
H2       0.36047    1.23883    0.51787   1.00
C6       0.27440    1.06959    0.48895   1.00
C6       0.30174    1.25411    0.53558   1.00
H2       0.27932    1.12449    0.45767   1.00
H2       0.33527    1.20046    0.53937   1.00
C6       0.29870    1.03235    0.49745   1.00
C6       0.29994    1.29208    0.51099   1.00
C6       0.25779    1.08574    0.52777   1.00
C6       0.26037    1.23607    0.53821   1.00
C6       0.23945    1.05745    0.46278   1.00
C6       0.31469    1.26554    0.57747   1.00
H2       0.31137    1.02058    0.47068   1.00
H2       0.32883    1.30520    0.50804   1.00
H2       0.32245    1.03830    0.51770   1.00
H2       0.28870    1.28654    0.48179   1.00
H2       0.28064    1.00959    0.51049   1.00
H2       0.28081    1.31363    0.52454   1.00
H2       0.23848    1.06455    0.54164   1.00
H2       0.24011    1.25598    0.55264   1.00
H2       0.28117    1.09225    0.54833   1.00
H2       0.24874    1.22994    0.50925   1.00
H2       0.24123    1.11245    0.52271   1.00
H2       0.26096    1.20885    0.55470   1.00
H2       0.24961    1.04542    0.43508   1.00
H2       0.34365    1.27883    0.57721   1.00
H2       0.22153    1.03525    0.47697   1.00
H2       0.29454    1.28649    0.59051   1.00
H2       0.22071    1.08239    0.45640   1.00
H2       0.31576    1.24002    0.59649   1.00
C4       0.18475    0.91846    0.41169   1.00
C4       0.14309    0.91999    0.41195   1.00
C3       0.20603    0.89558    0.38425   1.00
C3       0.11996    0.90211    0.38238   1.00
C3       0.20646    0.94042    0.43976   1.00
C3       0.12330    0.94009    0.44270   1.00
C2       0.26905    0.91685    0.40990   1.00
C2       0.05878    0.92142    0.41347   1.00
C3       0.24689    0.89490    0.38320   1.00
C3       0.07909    0.90259    0.38316   1.00
C3       0.24804    0.93911    0.43756   1.00
C3       0.08164    0.93972    0.44254   1.00
H1       0.19263    0.87825    0.36424   1.00
H1       0.13194    0.88839    0.35896   1.00
C5       0.18665    0.96271    0.46913   1.00
C5       0.14502    0.96004    0.47239   1.00
H1       0.26049    0.87793    0.36259   1.00
H1       0.06409    0.88901    0.36105   1.00
H1       0.26448    0.95454    0.45685   1.00
H1       0.06652    0.95346    0.46405   1.00
C6       0.20985    0.98904    0.49597   1.00
C6       0.12381    0.97761    0.50695   1.00
H2       0.23155    1.00478    0.47887   1.00
H2       0.10190    0.95700    0.51725   1.00
H2       0.19214    1.01280    0.50727   1.00
H2       0.14272    0.98005    0.53230   1.00
C6       0.22894    0.96673    0.53105   1.00
C6       0.10558    1.01859    0.49798   1.00
H2       0.24208    0.93961    0.52058   1.00
H2       0.09117    1.01787    0.46953   1.00
C6       0.26041    0.98895    0.55560   1.00
C6       0.07589    1.03558    0.52826   1.00
H2       0.20551    0.95767    0.55068   1.00
H2       0.12954    1.03937    0.49473   1.00
C6       0.29765    0.99745    0.53130   1.00
C6       0.03792    1.01099    0.53006   1.00
C6       0.24426    1.02777    0.57221   1.00
C6       0.09393    1.03821    0.56963   1.00
C6       0.27255    0.96278    0.59055   1.00
C6       0.06446    1.07747    0.51531   1.00
H2       0.30942    0.97068    0.51863   1.00
H2       0.02480    1.00804    0.50117   1.00
H2       0.29170    1.01770    0.50755   1.00
H2       0.04346    0.98179    0.54130   1.00
H2       0.32041    1.01049    0.54936   1.00
H2       0.01637    1.02454    0.54919   1.00
H2       0.26545    1.04164    0.59152   1.00
H2       0.07402    1.05264    0.58989   1.00
H2       0.23775    1.04833    0.54883   1.00
H2       0.10006    1.00925    0.58126   1.00
H2       0.21755    1.02271    0.58877   1.00
H2       0.12115    1.05470    0.56904   1.00
H2       0.28458    0.93508    0.58039   1.00
H2       0.05117    1.07721    0.48635   1.00
H2       0.29475    0.97697    0.60847   1.00
H2       0.04351    1.09051    0.53546   1.00
H2       0.24761    0.95640    0.60929   1.00
H2       0.08998    1.09649    0.51424   1.00
C4       0.64525    0.91846    0.41831   1.00
C4       0.68691    0.91999    0.41805   1.00
C3       0.62397    0.89558    0.44575   1.00
C3       0.71004    0.90211    0.44762   1.00
C3       0.62354    0.94042    0.39024   1.00
C3       0.70670    0.94009    0.38730   1.00
C2       0.56095    0.91685    0.42010   1.00
C2       0.77122    0.92142    0.41653   1.00
C3       0.58311    0.89490    0.44680   1.00
C3       0.75091    0.90259    0.44684   1.00
C3       0.58196    0.93911    0.39244   1.00
C3       0.74836    0.93972    0.38746   1.00
H1       0.63737    0.87825    0.46576   1.00
H1       0.69806    0.88839    0.47104   1.00
C5       0.64335    0.96271    0.36087   1.00
C5       0.68498    0.96004    0.35761   1.00
H1       0.56951    0.87793    0.46741   1.00
H1       0.76591    0.88901    0.46895   1.00
H1       0.56552    0.95454    0.37315   1.00
H1       0.76348    0.95346    0.36595   1.00
C6       0.62015    0.98904    0.33403   1.00
C6       0.70619    0.97761    0.32305   1.00
H2       0.59845    1.00478    0.35113   1.00
H2       0.72810    0.95700    0.31275   1.00
H2       0.63786    1.01280    0.32273   1.00
H2       0.68728    0.98005    0.29770   1.00
C6       0.60106    0.96673    0.29895   1.00
C6       0.72442    1.01859    0.33202   1.00
H2       0.58792    0.93961    0.30942   1.00
H2       0.73883    1.01787    0.36047   1.00
C6       0.56959    0.98895    0.27440   1.00
C6       0.75411    1.03558    0.30174   1.00
H2       0.62449    0.95767    0.27932   1.00
H2       0.70046    1.03937    0.33527   1.00
C6       0.53235    0.99745    0.29870   1.00
C6       0.79208    1.01099    0.29994   1.00
C6       0.58574    1.02777    0.25779   1.00
C6       0.73607    1.03821    0.26037   1.00
C6       0.55745    0.96278    0.23945   1.00
C6       0.76554    1.07747    0.31469   1.00
H2       0.52058    0.97068    0.31137   1.00
H2       0.80520    1.00804    0.32883   1.00
H2       0.53830    1.01770    0.32245   1.00
H2       0.78654    0.98179    0.28870   1.00
H2       0.50959    1.01049    0.28064   1.00
H2       0.81363    1.02454    0.28081   1.00
H2       0.56455    1.04164    0.23848   1.00
H2       0.75598    1.05264    0.24011   1.00
H2       0.59225    1.04833    0.28117   1.00
H2       0.72994    1.00925    0.24874   1.00
H2       0.61245    1.02271    0.24123   1.00
H2       0.70885    1.05470    0.26096   1.00
H2       0.54542    0.93508    0.24961   1.00
H2       0.77883    1.07721    0.34365   1.00
H2       0.53525    0.97697    0.22153   1.00
H2       0.78649    1.09051    0.29454   1.00
H2       0.58239    0.95640    0.22071   1.00
H2       0.74002    1.09649    0.31576   1.00
C4       0.41169    0.68475    0.41846   1.00
C4       0.41195    0.64309    0.41999   1.00
C3       0.38425    0.70603    0.39558   1.00
C3       0.38238    0.61996    0.40211   1.00
C3       0.43976    0.70646    0.44042   1.00
C3       0.44270    0.62330    0.44009   1.00
C2       0.40990    0.76905    0.41685   1.00
C2       0.41347    0.55878    0.42142   1.00
C3       0.38320    0.74689    0.39490   1.00
C3       0.38316    0.57909    0.40259   1.00
C3       0.43756    0.74804    0.43911   1.00
C3       0.44254    0.58164    0.43972   1.00
H1       0.36424    0.69263    0.37825   1.00
H1       0.35896    0.63194    0.38839   1.00
C5       0.46913    0.68665    0.46271   1.00
C5       0.47239    0.64502    0.46004   1.00
H1       0.36259    0.76049    0.37793   1.00
H1       0.36105    0.56409    0.38901   1.00
H1       0.45685    0.76448    0.45454   1.00
H1       0.46405    0.56652    0.45346   1.00
C6       0.49597    0.70985    0.48904   1.00
C6       0.50695    0.62381    0.47761   1.00
H2       0.47887    0.73155    0.50478   1.00
H2       0.51725    0.60190    0.45700   1.00
H2       0.50727    0.69214    0.51280   1.00
H2       0.53230    0.64272    0.48005   1.00
C6       0.53105    0.72894    0.46673   1.00
C6       0.49798    0.60558    0.51859   1.00
H2       0.52058    0.74208    0.43961   1.00
H2       0.46953    0.59117    0.51787   1.00
C6       0.55560    0.76041    0.48895   1.00
C6       0.52826    0.57589    0.53558   1.00
H2       0.55068    0.70551    0.45767   1.00
H2       0.49473    0.62954    0.53937   1.00
C6       0.53130    0.79765    0.49745   1.00
C6       0.53006    0.53792    0.51099   1.00
C6       0.57221    0.74426    0.52777   1.00
C6       0.56963    0.59393    0.53821   1.00
C6       0.59055    0.77255    0.46278   1.00
C6       0.51531    0.56446    0.57747   1.00
H2       0.51863    0.80942    0.47068   1.00
H2       0.50117    0.52480    0.50804   1.00
H2       0.50755    0.79170    0.51770   1.00
H2       0.54130    0.54346    0.48179   1.00
H2       0.54936    0.82041    0.51049   1.00
H2       0.54919    0.51637    0.52454   1.00
H2       0.59152    0.76545    0.54164   1.00
H2       0.58989    0.57402    0.55264   1.00
H2       0.54883    0.73775    0.54833   1.00
H2       0.58126    0.60006    0.50925   1.00
H2       0.58877    0.71755    0.52271   1.00
H2       0.56904    0.62115    0.55470   1.00
H2       0.58039    0.78458    0.43508   1.00
H2       0.48635    0.55117    0.57721   1.00
H2       0.60847    0.79475    0.47697   1.00
H2       0.53546    0.54351    0.59051   1.00
H2       0.60929    0.74761    0.45640   1.00
H2       0.51424    0.58998    0.59649   1.00
C4       0.41846    0.91169    0.18475   1.00
C4       0.41999    0.91195    0.14309   1.00
C3       0.39558    0.88425    0.20603   1.00
C3       0.40211    0.88238    0.11996   1.00
C3       0.44042    0.93976    0.20646   1.00
C3       0.44009    0.94270    0.12330   1.00
C2       0.41685    0.90990    0.26905   1.00
C2       0.42142    0.91347    0.05878   1.00
C3       0.39490    0.88320    0.24689   1.00
C3       0.40259    0.88316    0.07909   1.00
C3       0.43911    0.93756    0.24804   1.00
C3       0.43972    0.94254    0.08164   1.00
H1       0.37825    0.86424    0.19263   1.00
H1       0.38839    0.85896    0.13194   1.00
C5       0.46271    0.96913    0.18665   1.00
C5       0.46004    0.97239    0.14502   1.00
H1       0.37793    0.86259    0.26049   1.00
H1       0.38901    0.86105    0.06409   1.00
H1       0.45454    0.95685    0.26448   1.00
H1       0.45346    0.96405    0.06652   1.00
C6       0.48904    0.99597    0.20985   1.00
C6       0.47761    1.00695    0.12381   1.00
H2       0.50478    0.97887    0.23155   1.00
H2       0.45700    1.01725    0.10190   1.00
H2       0.51280    1.00727    0.19214   1.00
H2       0.48005    1.03230    0.14272   1.00
C6       0.46673    1.03105    0.22894   1.00
C6       0.51859    0.99798    0.10558   1.00
H2       0.43961    1.02058    0.24208   1.00
H2       0.51787    0.96953    0.09117   1.00
C6       0.48895    1.05560    0.26041   1.00
C6       0.53558    1.02826    0.07589   1.00
H2       0.45767    1.05068    0.20551   1.00
H2       0.53937    0.99473    0.12954   1.00
C6       0.49745    1.03130    0.29765   1.00
C6       0.51099    1.03006    0.03792   1.00
C6       0.52777    1.07221    0.24426   1.00
C6       0.53821    1.06963    0.09393   1.00
C6       0.46278    1.09055    0.27255   1.00
C6       0.57747    1.01531    0.06446   1.00
H2       0.47068    1.01863    0.30942   1.00
H2       0.50804    1.00117    0.02480   1.00
H2       0.51770    1.00755    0.29170   1.00
H2       0.48179    1.04130    0.04346   1.00
H2       0.51049    1.04936    0.32041   1.00
H2       0.52454    1.04919    0.01637   1.00
H2       0.54164    1.09152    0.26545   1.00
H2       0.55264    1.08989    0.07402   1.00
H2       0.54833    1.04883    0.23775   1.00
H2       0.50925    1.08126    0.10006   1.00
H2       0.52271    1.08877    0.21755   1.00
H2       0.55470    1.06904    0.12115   1.00
H2       0.43508    1.08039    0.28458   1.00
H2       0.57721    0.98635    0.05117   1.00
H2       0.47697    1.10847    0.29475   1.00
H2       0.59051    1.03546    0.04351   1.00
H2       0.45640    1.10929    0.24761   1.00
H2       0.59649    1.01424    0.08998   1.00
C4       0.91846    0.41831    0.64525   1.00
C4       0.91999    0.41805    0.68691   1.00
C3       0.89558    0.44575    0.62397   1.00
C3       0.90211    0.44762    0.71004   1.00
C3       0.94042    0.39024    0.62354   1.00
C3       0.94009    0.38730    0.70670   1.00
C2       0.91685    0.42010    0.56095   1.00
C2       0.92142    0.41653    0.77122   1.00
C3       0.89490    0.44680    0.58311   1.00
C3       0.90259    0.44684    0.75091   1.00
C3       0.93911    0.39244    0.58196   1.00
C3       0.93972    0.38746    0.74836   1.00
H1       0.87825    0.46576    0.63737   1.00
H1       0.88839    0.47104    0.69806   1.00
C5       0.96271    0.36087    0.64335   1.00
C5       0.96004    0.35761    0.68498   1.00
H1       0.87793    0.46741    0.56951   1.00
H1       0.88901    0.46895    0.76591   1.00
H1       0.95454    0.37315    0.56552   1.00
H1       0.95346    0.36595    0.76348   1.00
C6       0.98904    0.33403    0.62015   1.00
C6       0.97761    0.32305    0.70619   1.00
H2       1.00478    0.35113    0.59845   1.00
H2       0.95700    0.31275    0.72810   1.00
H2       1.01280    0.32273    0.63786   1.00
H2       0.98005    0.29770    0.68728   1.00
C6       0.96673    0.29895    0.60106   1.00
C6       1.01859    0.33202    0.72442   1.00
H2       0.93961    0.30942    0.58792   1.00
H2       1.01787    0.36047    0.73883   1.00
C6       0.98895    0.27440    0.56959   1.00
C6       1.03558    0.30174    0.75411   1.00
H2       0.95767    0.27932    0.62449   1.00
H2       1.03937    0.33527    0.70046   1.00
C6       0.99745    0.29870    0.53235   1.00
C6       1.01099    0.29994    0.79208   1.00
C6       1.02777    0.25779    0.58574   1.00
C6       1.03821    0.26037    0.73607   1.00
C6       0.96278    0.23945    0.55745   1.00
C6       1.07747    0.31469    0.76554   1.00
H2       0.97068    0.31137    0.52058   1.00
H2       1.00804    0.32883    0.80520   1.00
H2       1.01770    0.32245    0.53830   1.00
H2       0.98179    0.28870    0.78654   1.00
H2       1.01049    0.28064    0.50959   1.00
H2       1.02454    0.28081    0.81363   1.00
H2       1.04164    0.23848    0.56455   1.00
H2       1.05264    0.24011    0.75598   1.00
H2       1.04833    0.28117    0.59225   1.00
H2       1.00925    0.24874    0.72994   1.00
H2       1.02271    0.24123    0.61245   1.00
H2       1.05470    0.26096    0.70885   1.00
H2       0.93508    0.24961    0.54542   1.00
H2       1.07721    0.34365    0.77883   1.00
H2       0.97697    0.22153    0.53525   1.00
H2       1.09051    0.29454    0.78649   1.00
H2       0.95640    0.22071    0.58239   1.00
H2       1.09649    0.31576    0.74002   1.00
C4       0.91831    0.64525    0.41846   1.00
C4       0.91805    0.68691    0.41999   1.00
C3       0.94575    0.62397    0.39558   1.00
C3       0.94762    0.71004    0.40211   1.00
C3       0.89024    0.62354    0.44042   1.00
C3       0.88730    0.70670    0.44009   1.00
C2       0.92010    0.56095    0.41685   1.00
C2       0.91653    0.77122    0.42142   1.00
C3       0.94680    0.58311    0.39490   1.00
C3       0.94684    0.75091    0.40259   1.00
C3       0.89244    0.58196    0.43911   1.00
C3       0.88746    0.74836    0.43972   1.00
H1       0.96576    0.63737    0.37825   1.00
H1       0.97104    0.69806    0.38839   1.00
C5       0.86087    0.64335    0.46271   1.00
C5       0.85761    0.68498    0.46004   1.00
H1       0.96741    0.56951    0.37793   1.00
H1       0.96895    0.76591    0.38901   1.00
H1       0.87315    0.56552    0.45454   1.00
H1       0.86595    0.76348    0.45346   1.00
C6       0.83403    0.62015    0.48904   1.00
C6       0.82305    0.70619    0.47761   1.00
H2       0.85113    0.59845    0.50478   1.00
H2       0.81275    0.72810    0.45700   1.00
H2       0.82273    0.63786    0.51280   1.00
H2       0.79770    0.68728    0.48005   1.00
C6       0.79895    0.60106    0.46673   1.00
C6       0.83202    0.72442    0.51859   1.00
H2       0.80942    0.58792    0.43961   1.00
H2       0.86047    0.73883    0.51787   1.00
C6       0.77440    0.56959    0.48895   1.00
C6       0.80174    0.75411    0.53558   1.00
H2       0.77932    0.62449    0.45767   1.00
H2       0.83527    0.70046    0.53937   1.00
C6       0.79870    0.53235    0.49745   1.00
C6       0.79994    0.79208    0.51099   1.00
C6       0.75779    0.58574    0.52777   1.00
C6       0.76037    0.73607    0.53821   1.00
C6       0.73945    0.55745    0.46278   1.00
C6       0.81469    0.76554    0.57747   1.00
H2       0.81137    0.52058    0.47068   1.00
H2       0.82883    0.80520    0.50804   1.00
H2       0.82245    0.53830    0.51770   1.00
H2       0.78870    0.78654    0.48179   1.00
H2       0.78064    0.50959    0.51049   1.00
H2       0.78081    0.81363    0.52454   1.00
H2       0.73848    0.56455    0.54164   1.00
H2       0.74011    0.75598    0.55264   1.00
H2       0.78117    0.59225    0.54833   1.00
H2       0.74874    0.72994    0.50925   1.00
H2       0.74123    0.61245    0.52271   1.00
H2       0.76096    0.70885    0.55470   1.00
H2       0.74961    0.54542    0.43508   1.00
H2       0.84365    0.77883    0.57721   1.00
H2       0.72153    0.53525    0.47697   1.00
H2       0.79454    0.78649    0.59051   1.00
H2       0.72071    0.58239    0.45640   1.00
H2       0.81576    0.74002    0.59649   1.00
C4       0.68475    0.41846    0.41169   1.00
C4       0.64309    0.41999    0.41195   1.00
C3       0.70603    0.39558    0.38425   1.00
C3       0.61996    0.40211    0.38238   1.00
C3       0.70646    0.44042    0.43976   1.00
C3       0.62330    0.44009    0.44270   1.00
C2       0.76905    0.41685    0.40990   1.00
C2       0.55878    0.42142    0.41347   1.00
C3       0.74689    0.39490    0.38320   1.00
C3       0.57909    0.40259    0.38316   1.00
C3       0.74804    0.43911    0.43756   1.00
C3       0.58164    0.43972    0.44254   1.00
H1       0.69263    0.37825    0.36424   1.00
H1       0.63194    0.38839    0.35896   1.00
C5       0.68665    0.46271    0.46913   1.00
C5       0.64502    0.46004    0.47239   1.00
H1       0.76049    0.37793    0.36259   1.00
H1       0.56409    0.38901    0.36105   1.00
H1       0.76448    0.45454    0.45685   1.00
H1       0.56652    0.45346    0.46405   1.00
C6       0.70985    0.48904    0.49597   1.00
C6       0.62381    0.47761    0.50695   1.00
H2       0.73155    0.50478    0.47887   1.00
H2       0.60190    0.45700    0.51725   1.00
H2       0.69214    0.51280    0.50727   1.00
H2       0.64272    0.48005    0.53230   1.00
C6       0.72894    0.46673    0.53105   1.00
C6       0.60558    0.51859    0.49798   1.00
H2       0.74208    0.43961    0.52058   1.00
H2       0.59117    0.51787    0.46953   1.00
C6       0.76041    0.48895    0.55560   1.00
C6       0.57589    0.53558    0.52826   1.00
H2       0.70551    0.45767    0.55068   1.00
H2       0.62954    0.53937    0.49473   1.00
C6       0.79765    0.49745    0.53130   1.00
C6       0.53792    0.51099    0.53006   1.00
C6       0.74426    0.52777    0.57221   1.00
C6       0.59393    0.53821    0.56963   1.00
C6       0.77255    0.46278    0.59055   1.00
C6       0.56446    0.57747    0.51531   1.00
H2       0.80942    0.47068    0.51863   1.00
H2       0.52480    0.50804    0.50117   1.00
H2       0.79170    0.51770    0.50755   1.00
H2       0.54346    0.48179    0.54130   1.00
H2       0.82041    0.51049    0.54936   1.00
H2       0.51637    0.52454    0.54919   1.00
H2       0.76545    0.54164    0.59152   1.00
H2       0.57402    0.55264    0.58989   1.00
H2       0.73775    0.54833    0.54883   1.00
H2       0.60006    0.50925    0.58126   1.00
H2       0.71755    0.52271    0.58877   1.00
H2       0.62115    0.55470    0.56904   1.00
H2       0.78458    0.43508    0.58039   1.00
H2       0.55117    0.57721    0.48635   1.00
H2       0.79475    0.47697    0.60847   1.00
H2       0.54351    0.59051    0.53546   1.00
H2       0.74761    0.45640    0.60929   1.00
H2       0.58998    0.59649    0.51424   1.00
C4       1.14525    0.41846    0.41831   1.00
C4       1.18691    0.41999    0.41805   1.00
C3       1.12397    0.39558    0.44575   1.00
C3       1.21004    0.40211    0.44762   1.00
C3       1.12354    0.44042    0.39024   1.00
C3       1.20670    0.44009    0.38730   1.00
C2       1.06095    0.41685    0.42010   1.00
C2       1.27122    0.42142    0.41653   1.00
C3       1.08311    0.39490    0.44680   1.00
C3       1.25091    0.40259    0.44684   1.00
C3       1.08196    0.43911    0.39244   1.00
C3       1.24836    0.43972    0.38746   1.00
H1       1.13737    0.37825    0.46576   1.00
H1       1.19806    0.38839    0.47104   1.00
C5       1.14335    0.46271    0.36087   1.00
C5       1.18498    0.46004    0.35761   1.00
H1       1.06951    0.37793    0.46741   1.00
H1       1.26591    0.38901    0.46895   1.00
H1       1.06552    0.45454    0.37315   1.00
H1       1.26348    0.45346    0.36595   1.00
C6       1.12015    0.48904    0.33403   1.00
C6       1.20619    0.47761    0.32305   1.00
H2       1.09845    0.50478    0.35113   1.00
H2       1.22810    0.45700    0.31275   1.00
H2       1.13786    0.51280    0.32273   1.00
H2       1.18728    0.48005    0.29770   1.00
C6       1.10106    0.46673    0.29895   1.00
C6       1.22442    0.51859    0.33202   1.00
H2       1.08792    0.43961    0.30942   1.00
H2       1.23883    0.51787    0.36047   1.00
C6       1.06959    0.48895    0.27440   1.00
C6       1.25411    0.53558    0.30174   1.00
H2       1.12449    0.45767    0.27932   1.00
H2       1.20046    0.53937    0.33527   1.00
C6       1.03235    0.49745    0.29870   1.00
C6       1.29208    0.51099    0.29994   1.00
C6       1.08574    0.52777    0.25779   1.00
C6       1.23607    0.53821    0.26037   1.00
C6       1.05745    0.46278    0.23945   1.00
C6       1.26554    0.57747    0.31469   1.00
H2       1.02058    0.47068    0.31137   1.00
H2       1.30520    0.50804    0.32883   1.00
H2       1.03830    0.51770    0.32245   1.00
H2       1.28654    0.48179    0.28870   1.00
H2       1.00959    0.51049    0.28064   1.00
H2       1.31363    0.52454    0.28081   1.00
H2       1.06455    0.54164    0.23848   1.00
H2       1.25598    0.55264    0.24011   1.00
H2       1.09225    0.54833    0.28117   1.00
H2       1.22994    0.50925    0.24874   1.00
H2       1.11245    0.52271    0.24123   1.00
H2       1.20885    0.55470    0.26096   1.00
H2       1.04542    0.43508    0.24961   1.00
H2       1.27883    0.57721    0.34365   1.00
H2       1.03525    0.47697    0.22153   1.00
H2       1.28649    0.59051    0.29454   1.00
H2       1.08239    0.45640    0.22071   1.00
H2       1.24002    0.59649    0.31576   1.00
C4       0.91169    0.18475    0.41846   1.00
C4       0.91195    0.14309    0.41999   1.00
C3       0.88425    0.20603    0.39558   1.00
C3       0.88238    0.11996    0.40211   1.00
C3       0.93976    0.20646    0.44042   1.00
C3       0.94270    0.12330    0.44009   1.00
C2       0.90990    0.26905    0.41685   1.00
C2       0.91347    0.05878    0.42142   1.00
C3       0.88320    0.24689    0.39490   1.00
C3       0.88316    0.07909    0.40259   1.00
C3       0.93756    0.24804    0.43911   1.00
C3       0.94254    0.08164    0.43972   1.00
H1       0.86424    0.19263    0.37825   1.00
H1       0.85896    0.13194    0.38839   1.00
C5       0.96913    0.18665    0.46271   1.00
C5       0.97239    0.14502    0.46004   1.00
H1       0.86259    0.26049    0.37793   1.00
H1       0.86105    0.06409    0.38901   1.00
H1       0.95685    0.26448    0.45454   1.00
H1       0.96405    0.06652    0.45346   1.00
C6       0.99597    0.20985    0.48904   1.00
C6       1.00695    0.12381    0.47761   1.00
H2       0.97887    0.23155    0.50478   1.00
H2       1.01725    0.10190    0.45700   1.00
H2       1.00727    0.19214    0.51280   1.00
H2       1.03230    0.14272    0.48005   1.00
C6       1.03105    0.22894    0.46673   1.00
C6       0.99798    0.10558    0.51859   1.00
H2       1.02058    0.24208    0.43961   1.00
H2       0.96953    0.09117    0.51787   1.00
C6       1.05560    0.26041    0.48895   1.00
C6       1.02826    0.07589    0.53558   1.00
H2       1.05068    0.20551    0.45767   1.00
H2       0.99473    0.12954    0.53937   1.00
C6       1.03130    0.29765    0.49745   1.00
C6       1.03006    0.03792    0.51099   1.00
C6       1.07221    0.24426    0.52777   1.00
C6       1.06963    0.09393    0.53821   1.00
C6       1.09055    0.27255    0.46278   1.00
C6       1.01531    0.06446    0.57747   1.00
H2       1.01863    0.30942    0.47068   1.00
H2       1.00117    0.02480    0.50804   1.00
H2       1.00755    0.29170    0.51770   1.00
H2       1.04130    0.04346    0.48179   1.00
H2       1.04936    0.32041    0.51049   1.00
H2       1.04919    0.01637    0.52454   1.00
H2       1.09152    0.26545    0.54164   1.00
H2       1.08989    0.07402    0.55264   1.00
H2       1.04883    0.23775    0.54833   1.00
H2       1.08126    0.10006    0.50925   1.00
H2       1.08877    0.21755    0.52271   1.00
H2       1.06904    0.12115    0.55470   1.00
H2       1.08039    0.28458    0.43508   1.00
H2       0.98635    0.05117    0.57721   1.00
H2       1.10847    0.29475    0.47697   1.00
H2       1.03546    0.04351    0.59051   1.00
H2       1.10929    0.24761    0.45640   1.00
H2       1.01424    0.08998    0.59649   1.00
C4       0.91846    0.41169    0.18475   1.00
C4       0.91999    0.41195    0.14309   1.00
C3       0.89558    0.38425    0.20603   1.00
C3       0.90211    0.38238    0.11996   1.00
C3       0.94042    0.43976    0.20646   1.00
C3       0.94009    0.44270    0.12330   1.00
C2       0.91685    0.40990    0.26905   1.00
C2       0.92142    0.41347    0.05878   1.00
C3       0.89490    0.38320    0.24689   1.00
C3       0.90259    0.38316    0.07909   1.00
C3       0.93911    0.43756    0.24804   1.00
C3       0.93972    0.44254    0.08164   1.00
H1       0.87825    0.36424    0.19263   1.00
H1       0.88839    0.35896    0.13194   1.00
C5       0.96271    0.46913    0.18665   1.00
C5       0.96004    0.47239    0.14502   1.00
H1       0.87793    0.36259    0.26049   1.00
H1       0.88901    0.36105    0.06409   1.00
H1       0.95454    0.45685    0.26448   1.00
H1       0.95346    0.46405    0.06652   1.00
C6       0.98904    0.49597    0.20985   1.00
C6       0.97761    0.50695    0.12381   1.00
H2       1.00478    0.47887    0.23155   1.00
H2       0.95700    0.51725    0.10190   1.00
H2       1.01280    0.50727    0.19214   1.00
H2       0.98005    0.53230    0.14272   1.00
C6       0.96673    0.53105    0.22894   1.00
C6       1.01859    0.49798    0.10558   1.00
H2       0.93961    0.52058    0.24208   1.00
H2       1.01787    0.46953    0.09117   1.00
C6       0.98895    0.55560    0.26041   1.00
C6       1.03558    0.52826    0.07589   1.00
H2       0.95767    0.55068    0.20551   1.00
H2       1.03937    0.49473    0.12954   1.00
C6       0.99745    0.53130    0.29765   1.00
C6       1.01099    0.53006    0.03792   1.00
C6       1.02777    0.57221    0.24426   1.00
C6       1.03821    0.56963    0.09393   1.00
C6       0.96278    0.59055    0.27255   1.00
C6       1.07747    0.51531    0.06446   1.00
H2       0.97068    0.51863    0.30942   1.00
H2       1.00804    0.50117    0.02480   1.00
H2       1.01770    0.50755    0.29170   1.00
H2       0.98179    0.54130    0.04346   1.00
H2       1.01049    0.54936    0.32041   1.00
H2       1.02454    0.54919    0.01637   1.00
H2       1.04164    0.59152    0.26545   1.00
H2       1.05264    0.58989    0.07402   1.00
H2       1.04833    0.54883    0.23775   1.00
H2       1.00925    0.58126    0.10006   1.00
H2       1.02271    0.58877    0.21755   1.00
H2       1.05470    0.56904    0.12115   1.00
H2       0.93508    0.58039    0.28458   1.00
H2       1.07721    0.48635    0.05117   1.00
H2       0.97697    0.60847    0.29475   1.00
H2       1.09051    0.53546    0.04351   1.00
H2       0.95640    0.60929    0.24761   1.00
H2       1.09649    0.51424    0.08998   1.00
