data_IRMOF10_SG202_interpen_Ligand7cp_label_c.

_audit_creation_method             'generated by an auxiliary program of Tobunporous'

_symmetry_space_group_name_H-M     'P 1'
_symmetry_Int_Tables_number        1
_symmetry_cell_setting             triclinic

_cell_length_a                    34.2800
_cell_length_b                    34.2800
_cell_length_c                    34.2800
_cell_angle_alpha                 90.0000
_cell_angle_beta                  90.0000
_cell_angle_gamma                 90.0000

loop_
_atom_site_label
_atom_site_fract_x
_atom_site_fract_y
_atom_site_fract_z
_atom_site_occupancy
O1       0.75000    0.75000    0.75000   1.00
Zn1      0.71720    0.78280    0.78280   1.00
Zn1      0.78280    0.71720    0.78280   1.00
Zn1      0.78280    0.78280    0.71720   1.00
Zn1      0.71720    0.71720    0.71720   1.00
O2       0.72650    0.77350    0.83820   1.00
O2       0.72650    0.83820    0.77350   1.00
O2       0.66180    0.77350    0.77350   1.00
O2       0.77350    0.72650    0.83820   1.00
O2       0.83820    0.72650    0.77350   1.00
O2       0.77350    0.66180    0.77350   1.00
O2       0.77350    0.83820    0.72650   1.00
O2       0.83820    0.77350    0.72650   1.00
O2       0.77350    0.77350    0.66180   1.00
O2       0.66180    0.72650    0.72650   1.00
O2       0.72650    0.66180    0.72650   1.00
O2       0.72650    0.72650    0.66180   1.00
C1       0.75000    0.75000    0.85520   1.00
C1       0.75000    0.85520    0.75000   1.00
C1       0.64480    0.75000    0.75000   1.00
C1       0.85520    0.75000    0.75000   1.00
C1       0.75000    0.64480    0.75000   1.00
C1       0.75000    0.75000    0.64480   1.00
O1       0.25000    0.25000    0.75000   1.00
Zn1      0.21720    0.28280    0.78280   1.00
Zn1      0.28280    0.21720    0.78280   1.00
Zn1      0.28280    0.28280    0.71720   1.00
Zn1      0.21720    0.21720    0.71720   1.00
O2       0.22650    0.27350    0.83820   1.00
O2       0.22650    0.33820    0.77350   1.00
O2       0.16180    0.27350    0.77350   1.00
O2       0.27350    0.22650    0.83820   1.00
O2       0.33820    0.22650    0.77350   1.00
O2       0.27350    0.16180    0.77350   1.00
O2       0.27350    0.33820    0.72650   1.00
O2       0.33820    0.27350    0.72650   1.00
O2       0.27350    0.27350    0.66180   1.00
O2       0.16180    0.22650    0.72650   1.00
O2       0.22650    0.16180    0.72650   1.00
O2       0.22650    0.22650    0.66180   1.00
C1       0.25000    0.25000    0.85520   1.00
C1       0.25000    0.35520    0.75000   1.00
C1       0.14480    0.25000    0.75000   1.00
C1       0.35520    0.25000    0.75000   1.00
C1       0.25000    0.14480    0.75000   1.00
C1       0.25000    0.25000    0.64480   1.00
O1       0.25000    0.75000    0.25000   1.00
Zn1      0.21720    0.78280    0.28280   1.00
Zn1      0.28280    0.71720    0.28280   1.00
Zn1      0.28280    0.78280    0.21720   1.00
Zn1      0.21720    0.71720    0.21720   1.00
O2       0.22650    0.77350    0.33820   1.00
O2       0.22650    0.83820    0.27350   1.00
O2       0.16180    0.77350    0.27350   1.00
O2       0.27350    0.72650    0.33820   1.00
O2       0.33820    0.72650    0.27350   1.00
O2       0.27350    0.66180    0.27350   1.00
O2       0.27350    0.83820    0.22650   1.00
O2       0.33820    0.77350    0.22650   1.00
O2       0.27350    0.77350    0.16180   1.00
O2       0.16180    0.72650    0.22650   1.00
O2       0.22650    0.66180    0.22650   1.00
O2       0.22650    0.72650    0.16180   1.00
C1       0.25000    0.75000    0.35520   1.00
C1       0.25000    0.85520    0.25000   1.00
C1       0.14480    0.75000    0.25000   1.00
C1       0.35520    0.75000    0.25000   1.00
C1       0.25000    0.64480    0.25000   1.00
C1       0.25000    0.75000    0.14480   1.00
O1       0.75000    0.25000    0.25000   1.00
Zn1      0.71720    0.28280    0.28280   1.00
Zn1      0.78280    0.21720    0.28280   1.00
Zn1      0.78280    0.28280    0.21720   1.00
Zn1      0.71720    0.21720    0.21720   1.00
O2       0.72650    0.27350    0.33820   1.00
O2       0.72650    0.33820    0.27350   1.00
O2       0.66180    0.27350    0.27350   1.00
O2       0.77350    0.22650    0.33820   1.00
O2       0.83820    0.22650    0.27350   1.00
O2       0.77350    0.16180    0.27350   1.00
O2       0.77350    0.33820    0.22650   1.00
O2       0.83820    0.27350    0.22650   1.00
O2       0.77350    0.27350    0.16180   1.00
O2       0.66180    0.22650    0.22650   1.00
O2       0.72650    0.16180    0.22650   1.00
O2       0.72650    0.22650    0.16180   1.00
C1       0.75000    0.25000    0.35520   1.00
C1       0.75000    0.35520    0.25000   1.00
C1       0.64480    0.25000    0.25000   1.00
C1       0.85520    0.25000    0.25000   1.00
C1       0.75000    0.14480    0.25000   1.00
C1       0.75000    0.25000    0.14480   1.00
O1       0.25000    0.25000    0.25000   1.00
Zn1      0.28280    0.21720    0.21720   1.00
Zn1      0.21720    0.28280    0.21720   1.00
Zn1      0.21720    0.21720    0.28280   1.00
Zn1      0.28280    0.28280    0.28280   1.00
O2       0.27350    0.22650    0.16180   1.00
O2       0.27350    0.16180    0.22650   1.00
O2       0.33820    0.22650    0.22650   1.00
O2       0.22650    0.27350    0.16180   1.00
O2       0.16180    0.27350    0.22650   1.00
O2       0.22650    0.33820    0.22650   1.00
O2       0.22650    0.16180    0.27350   1.00
O2       0.16180    0.22650    0.27350   1.00
O2       0.22650    0.22650    0.33820   1.00
O2       0.33820    0.27350    0.27350   1.00
O2       0.27350    0.33820    0.27350   1.00
O2       0.27350    0.27350    0.33820   1.00
C1       0.25000    0.25000    0.14480   1.00
C1       0.25000    0.14480    0.25000   1.00
C1       0.35520    0.25000    0.25000   1.00
C1       0.14480    0.25000    0.25000   1.00
C1       0.25000    0.35520    0.25000   1.00
C1       0.25000    0.25000    0.35520   1.00
O1       0.75000    0.75000    0.25000   1.00
Zn1      0.78280    0.71720    0.21720   1.00
Zn1      0.71720    0.78280    0.21720   1.00
Zn1      0.71720    0.71720    0.28280   1.00
Zn1      0.78280    0.78280    0.28280   1.00
O2       0.77350    0.72650    0.16180   1.00
O2       0.77350    0.66180    0.22650   1.00
O2       0.83820    0.72650    0.22650   1.00
O2       0.72650    0.77350    0.16180   1.00
O2       0.66180    0.77350    0.22650   1.00
O2       0.72650    0.83820    0.22650   1.00
O2       0.72650    0.66180    0.27350   1.00
O2       0.66180    0.72650    0.27350   1.00
O2       0.72650    0.72650    0.33820   1.00
O2       0.83820    0.77350    0.27350   1.00
O2       0.77350    0.83820    0.27350   1.00
O2       0.77350    0.77350    0.33820   1.00
C1       0.75000    0.75000    0.14480   1.00
C1       0.75000    0.64480    0.25000   1.00
C1       0.85520    0.75000    0.25000   1.00
C1       0.64480    0.75000    0.25000   1.00
C1       0.75000    0.85520    0.25000   1.00
C1       0.75000    0.75000    0.35520   1.00
O1       0.75000    0.25000    0.75000   1.00
Zn1      0.78280    0.21720    0.71720   1.00
Zn1      0.71720    0.28280    0.71720   1.00
Zn1      0.71720    0.21720    0.78280   1.00
Zn1      0.78280    0.28280    0.78280   1.00
O2       0.77350    0.22650    0.66180   1.00
O2       0.77350    0.16180    0.72650   1.00
O2       0.83820    0.22650    0.72650   1.00
O2       0.72650    0.27350    0.66180   1.00
O2       0.66180    0.27350    0.72650   1.00
O2       0.72650    0.33820    0.72650   1.00
O2       0.72650    0.16180    0.77350   1.00
O2       0.66180    0.22650    0.77350   1.00
O2       0.72650    0.22650    0.83820   1.00
O2       0.83820    0.27350    0.77350   1.00
O2       0.77350    0.33820    0.77350   1.00
O2       0.77350    0.27350    0.83820   1.00
C1       0.75000    0.25000    0.64480   1.00
C1       0.75000    0.14480    0.75000   1.00
C1       0.85520    0.25000    0.75000   1.00
C1       0.64480    0.25000    0.75000   1.00
C1       0.75000    0.35520    0.75000   1.00
C1       0.75000    0.25000    0.85520   1.00
O1       0.25000    0.75000    0.75000   1.00
Zn1      0.28280    0.71720    0.71720   1.00
Zn1      0.21720    0.78280    0.71720   1.00
Zn1      0.21720    0.71720    0.78280   1.00
Zn1      0.28280    0.78280    0.78280   1.00
O2       0.27350    0.72650    0.66180   1.00
O2       0.27350    0.66180    0.72650   1.00
O2       0.33820    0.72650    0.72650   1.00
O2       0.22650    0.77350    0.66180   1.00
O2       0.16180    0.77350    0.72650   1.00
O2       0.22650    0.83820    0.72650   1.00
O2       0.22650    0.66180    0.77350   1.00
O2       0.16180    0.72650    0.77350   1.00
O2       0.22650    0.72650    0.83820   1.00
O2       0.33820    0.77350    0.77350   1.00
O2       0.27350    0.83820    0.77350   1.00
O2       0.27350    0.77350    0.83820   1.00
C1       0.25000    0.75000    0.64480   1.00
C1       0.25000    0.64480    0.75000   1.00
C1       0.35520    0.75000    0.75000   1.00
C1       0.14480    0.75000    0.75000   1.00
C1       0.25000    0.85520    0.75000   1.00
C1       0.25000    0.75000    0.85520   1.00
O1       0.91500    0.91500    0.91500   1.00
Zn1      0.88220    0.94780    0.94780   1.00
Zn1      0.94780    0.88220    0.94780   1.00
Zn1      0.94780    0.94780    0.88220   1.00
Zn1      0.88220    0.88220    0.88220   1.00
O2       0.89150    0.93850    1.00320   1.00
O2       0.89150    1.00320    0.93850   1.00
O2       0.82680    0.93850    0.93850   1.00
O2       0.93850    0.89150    1.00320   1.00
O2       1.00320    0.89150    0.93850   1.00
O2       0.93850    0.82680    0.93850   1.00
O2       0.93850    1.00320    0.89150   1.00
O2       1.00320    0.93850    0.89150   1.00
O2       0.93850    0.93850    0.82680   1.00
O2       0.82680    0.89150    0.89150   1.00
O2       0.89150    0.82680    0.89150   1.00
O2       0.89150    0.89150    0.82680   1.00
C1       0.91500    0.91500    1.02020   1.00
C1       0.91500    1.02020    0.91500   1.00
C1       0.80980    0.91500    0.91500   1.00
C1       1.02020    0.91500    0.91500   1.00
C1       0.91500    0.80980    0.91500   1.00
C1       0.91500    0.91500    0.80980   1.00
O1       0.41500    0.41500    0.91500   1.00
Zn1      0.38220    0.44780    0.94780   1.00
Zn1      0.44780    0.38220    0.94780   1.00
Zn1      0.44780    0.44780    0.88220   1.00
Zn1      0.38220    0.38220    0.88220   1.00
O2       0.39150    0.43850    1.00320   1.00
O2       0.39150    0.50320    0.93850   1.00
O2       0.32680    0.43850    0.93850   1.00
O2       0.43850    0.39150    1.00320   1.00
O2       0.50320    0.39150    0.93850   1.00
O2       0.43850    0.32680    0.93850   1.00
O2       0.43850    0.50320    0.89150   1.00
O2       0.50320    0.43850    0.89150   1.00
O2       0.43850    0.43850    0.82680   1.00
O2       0.32680    0.39150    0.89150   1.00
O2       0.39150    0.32680    0.89150   1.00
O2       0.39150    0.39150    0.82680   1.00
C1       0.41500    0.41500    1.02020   1.00
C1       0.41500    0.52020    0.91500   1.00
C1       0.30980    0.41500    0.91500   1.00
C1       0.52020    0.41500    0.91500   1.00
C1       0.41500    0.30980    0.91500   1.00
C1       0.41500    0.41500    0.80980   1.00
O1       0.41500    0.91500    0.41500   1.00
Zn1      0.38220    0.94780    0.44780   1.00
Zn1      0.44780    0.88220    0.44780   1.00
Zn1      0.44780    0.94780    0.38220   1.00
Zn1      0.38220    0.88220    0.38220   1.00
O2       0.39150    0.93850    0.50320   1.00
O2       0.39150    1.00320    0.43850   1.00
O2       0.32680    0.93850    0.43850   1.00
O2       0.43850    0.89150    0.50320   1.00
O2       0.50320    0.89150    0.43850   1.00
O2       0.43850    0.82680    0.43850   1.00
O2       0.43850    1.00320    0.39150   1.00
O2       0.50320    0.93850    0.39150   1.00
O2       0.43850    0.93850    0.32680   1.00
O2       0.32680    0.89150    0.39150   1.00
O2       0.39150    0.82680    0.39150   1.00
O2       0.39150    0.89150    0.32680   1.00
C1       0.41500    0.91500    0.52020   1.00
C1       0.41500    1.02020    0.41500   1.00
C1       0.30980    0.91500    0.41500   1.00
C1       0.52020    0.91500    0.41500   1.00
C1       0.41500    0.80980    0.41500   1.00
C1       0.41500    0.91500    0.30980   1.00
O1       0.91500    0.41500    0.41500   1.00
Zn1      0.88220    0.44780    0.44780   1.00
Zn1      0.94780    0.38220    0.44780   1.00
Zn1      0.94780    0.44780    0.38220   1.00
Zn1      0.88220    0.38220    0.38220   1.00
O2       0.89150    0.43850    0.50320   1.00
O2       0.89150    0.50320    0.43850   1.00
O2       0.82680    0.43850    0.43850   1.00
O2       0.93850    0.39150    0.50320   1.00
O2       1.00320    0.39150    0.43850   1.00
O2       0.93850    0.32680    0.43850   1.00
O2       0.93850    0.50320    0.39150   1.00
O2       1.00320    0.43850    0.39150   1.00
O2       0.93850    0.43850    0.32680   1.00
O2       0.82680    0.39150    0.39150   1.00
O2       0.89150    0.32680    0.39150   1.00
O2       0.89150    0.39150    0.32680   1.00
C1       0.91500    0.41500    0.52020   1.00
C1       0.91500    0.52020    0.41500   1.00
C1       0.80980    0.41500    0.41500   1.00
C1       1.02020    0.41500    0.41500   1.00
C1       0.91500    0.30980    0.41500   1.00
C1       0.91500    0.41500    0.30980   1.00
O1       0.41500    0.41500    0.41500   1.00
Zn1      0.44780    0.38220    0.38220   1.00
Zn1      0.38220    0.44780    0.38220   1.00
Zn1      0.38220    0.38220    0.44780   1.00
Zn1      0.44780    0.44780    0.44780   1.00
O2       0.43850    0.39150    0.32680   1.00
O2       0.43850    0.32680    0.39150   1.00
O2       0.50320    0.39150    0.39150   1.00
O2       0.39150    0.43850    0.32680   1.00
O2       0.32680    0.43850    0.39150   1.00
O2       0.39150    0.50320    0.39150   1.00
O2       0.39150    0.32680    0.43850   1.00
O2       0.32680    0.39150    0.43850   1.00
O2       0.39150    0.39150    0.50320   1.00
O2       0.50320    0.43850    0.43850   1.00
O2       0.43850    0.50320    0.43850   1.00
O2       0.43850    0.43850    0.50320   1.00
C1       0.41500    0.41500    0.30980   1.00
C1       0.41500    0.30980    0.41500   1.00
C1       0.52020    0.41500    0.41500   1.00
C1       0.30980    0.41500    0.41500   1.00
C1       0.41500    0.52020    0.41500   1.00
C1       0.41500    0.41500    0.52020   1.00
O1       0.91500    0.91500    0.41500   1.00
Zn1      0.94780    0.88220    0.38220   1.00
Zn1      0.88220    0.94780    0.38220   1.00
Zn1      0.88220    0.88220    0.44780   1.00
Zn1      0.94780    0.94780    0.44780   1.00
O2       0.93850    0.89150    0.32680   1.00
O2       0.93850    0.82680    0.39150   1.00
O2       1.00320    0.89150    0.39150   1.00
O2       0.89150    0.93850    0.32680   1.00
O2       0.82680    0.93850    0.39150   1.00
O2       0.89150    1.00320    0.39150   1.00
O2       0.89150    0.82680    0.43850   1.00
O2       0.82680    0.89150    0.43850   1.00
O2       0.89150    0.89150    0.50320   1.00
O2       1.00320    0.93850    0.43850   1.00
O2       0.93850    1.00320    0.43850   1.00
O2       0.93850    0.93850    0.50320   1.00
C1       0.91500    0.91500    0.30980   1.00
C1       0.91500    0.80980    0.41500   1.00
C1       1.02020    0.91500    0.41500   1.00
C1       0.80980    0.91500    0.41500   1.00
C1       0.91500    1.02020    0.41500   1.00
C1       0.91500    0.91500    0.52020   1.00
O1       0.91500    0.41500    0.91500   1.00
Zn1      0.94780    0.38220    0.88220   1.00
Zn1      0.88220    0.44780    0.88220   1.00
Zn1      0.88220    0.38220    0.94780   1.00
Zn1      0.94780    0.44780    0.94780   1.00
O2       0.93850    0.39150    0.82680   1.00
O2       0.93850    0.32680    0.89150   1.00
O2       1.00320    0.39150    0.89150   1.00
O2       0.89150    0.43850    0.82680   1.00
O2       0.82680    0.43850    0.89150   1.00
O2       0.89150    0.50320    0.89150   1.00
O2       0.89150    0.32680    0.93850   1.00
O2       0.82680    0.39150    0.93850   1.00
O2       0.89150    0.39150    1.00320   1.00
O2       1.00320    0.43850    0.93850   1.00
O2       0.93850    0.50320    0.93850   1.00
O2       0.93850    0.43850    1.00320   1.00
C1       0.91500    0.41500    0.80980   1.00
C1       0.91500    0.30980    0.91500   1.00
C1       1.02020    0.41500    0.91500   1.00
C1       0.80980    0.41500    0.91500   1.00
C1       0.91500    0.52020    0.91500   1.00
C1       0.91500    0.41500    1.02020   1.00
O1       0.41500    0.91500    0.91500   1.00
Zn1      0.44780    0.88220    0.88220   1.00
Zn1      0.38220    0.94780    0.88220   1.00
Zn1      0.38220    0.88220    0.94780   1.00
Zn1      0.44780    0.94780    0.94780   1.00
O2       0.43850    0.89150    0.82680   1.00
O2       0.43850    0.82680    0.89150   1.00
O2       0.50320    0.89150    0.89150   1.00
O2       0.39150    0.93850    0.82680   1.00
O2       0.32680    0.93850    0.89150   1.00
O2       0.39150    1.00320    0.89150   1.00
O2       0.39150    0.82680    0.93850   1.00
O2       0.32680    0.89150    0.93850   1.00
O2       0.39150    0.89150    1.00320   1.00
O2       0.50320    0.93850    0.93850   1.00
O2       0.43850    1.00320    0.93850   1.00
O2       0.43850    0.93850    1.00320   1.00
C1       0.41500    0.91500    0.80980   1.00
C1       0.41500    0.80980    0.91500   1.00
C1       0.52020    0.91500    0.91500   1.00
C1       0.30980    0.91500    0.91500   1.00
C1       0.41500    1.02020    0.91500   1.00
C1       0.41500    0.91500    1.02020   1.00
C5       0.73348    0.87570    1.13218   1.00
H2       0.70819    0.86240    1.14745   1.00
H2       0.72094    0.89669    1.11090   1.00
C5       0.75939    0.89717    1.16194   1.00
C5       0.74271    0.93784    1.17123   1.00
H2       0.78947    0.90050    1.15015   1.00
O3       0.81761    0.77109    0.98000   1.00
C4       0.74972    0.74968    1.02100   1.00
C3c      0.73868    0.78282    1.04243   1.00
H1       0.72983    0.80901    1.02725   1.00
C3d      0.76062    0.71567    1.04135   1.00
C3       0.73938    0.78295    1.08354   1.00
O2       0.72368    0.81469    1.10248   1.00
C3       0.76207    0.71594    1.08227   1.00
H1       0.77194    0.68962    1.09657   1.00
C2       0.75140    0.74933    1.10439   1.00
C5       0.84561    0.74089    0.97879   1.00
H2       0.85467    0.73373    0.94838   1.00
H2       0.83418    0.71374    0.99266   1.00
C5       0.88139    0.75478    1.00129   1.00
H2       0.87214    0.76298    1.03137   1.00
H2       0.89277    0.78168    0.98698   1.00
C5       0.91301    0.72290    1.00262   1.00
H2       0.92219    0.71438    0.97268   1.00
H2       0.90212    0.69652    1.01811   1.00
C5       0.94923    0.73807    1.02445   1.00
C5       0.74298    0.65909    1.01105   1.00
C5       0.75334    0.84218    1.11070   1.00
H2       0.72269    0.67441    0.99088   1.00
H2       0.72622    0.64911    1.03712   1.00
H2       0.76671    0.85286    1.08300   1.00
H2       0.77732    0.82962    1.12895   1.00
H2       0.76066    0.88108    1.19030   1.00
H2       0.71698    0.61747    0.94247   1.00
H2       0.70336    0.59320    0.98763   1.00
C2       0.75243    0.74887    0.89605   1.00
C3       0.71747    0.74004    0.91597   1.00
O2       0.68711    0.72188    0.89674   1.00
C3       0.78550    0.75973    0.91826   1.00
H1       0.81241    0.76764    0.90385   1.00
C3a      0.71658    0.74124    0.95713   1.00
H1       0.69025    0.73224    0.97202   1.00
C3b      0.78488    0.75968    0.95922   1.00
C4       0.75028    0.75032    0.97900   1.00
O3       0.77456    0.68328    1.02167   1.00
C5       0.65788    0.74926    0.88720   1.00
H2       0.64601    0.76367    0.91391   1.00
C5       0.62529    0.72694    0.86674   1.00
H2       0.66948    0.77220    0.86726   1.00
H2       0.60724    0.71210    0.88932   1.00
H2       0.63918    0.70346    0.84907   1.00
C5       0.59967    0.75320    0.84082   1.00
H2       0.58856    0.77819    0.85824   1.00
C5       0.56466    0.73023    0.82453   1.00
H2       0.61631    0.76439    0.81507   1.00
C5       0.75974    0.62357    0.99017   1.00
H2       0.77450    0.60471    1.01215   1.00
H2       0.78268    0.63378    0.96952   1.00
C5       0.72814    0.60059    0.96800   1.00
C5       0.74533    0.56219    0.95225   1.00
H2       0.71762    0.93485    1.19286   1.00
C5       0.77494    0.96351    1.18912   1.00
H2       0.73159    0.95191    1.14323   1.00
C5       0.97681    0.70375    1.03337   1.00
H2       0.96505    0.76037    1.00551   1.00
H2       0.93981    0.75241    1.05293   1.00
C5       0.53590    0.75866    0.80497   1.00
H2       0.57537    0.70813    0.80211   1.00
H2       0.54934    0.71429    0.84937   1.00
H2       0.77365    0.56857    0.93602   1.00
H2       0.75149    0.54158    0.97761   1.00
C5       0.71596    0.54304    0.92417   1.00
H2       0.79914    0.94414    1.20116   1.00
H2       0.78741    0.98357    1.16571   1.00
H2       0.76212    0.98184    1.21374   1.00
H2       0.96565    0.67633    1.01820   1.00
H2       1.00734    0.71089    1.02229   1.00
H2       0.97785    0.69860    1.06621   1.00
H2       0.55288    0.78230    0.78889   1.00
H2       0.51686    0.74204    0.78336   1.00
H2       0.51666    0.77268    0.82819   1.00
H2       0.72223    0.55302    0.89307   1.00
H2       0.71884    0.50996    0.92598   1.00
H2       0.68507    0.55196    0.93266   1.00
C5       0.87570    1.13218    0.73348   1.00
H2       0.86240    1.14745    0.70819   1.00
H2       0.89669    1.11090    0.72094   1.00
C5       0.89717    1.16194    0.75939   1.00
C5       0.93784    1.17123    0.74271   1.00
H2       0.90050    1.15015    0.78947   1.00
O3       0.77109    0.98000    0.81761   1.00
C4       0.74968    1.02100    0.74972   1.00
C3c      0.78282    1.04243    0.73868   1.00
H1       0.80901    1.02725    0.72983   1.00
C3d      0.71567    1.04135    0.76062   1.00
C3       0.78295    1.08354    0.73938   1.00
O2       0.81469    1.10248    0.72368   1.00
C3       0.71594    1.08227    0.76207   1.00
H1       0.68962    1.09657    0.77194   1.00
C2       0.74933    1.10439    0.75140   1.00
C5       0.74089    0.97879    0.84561   1.00
H2       0.73373    0.94838    0.85467   1.00
H2       0.71374    0.99266    0.83418   1.00
C5       0.75478    1.00129    0.88139   1.00
H2       0.76298    1.03137    0.87214   1.00
H2       0.78168    0.98698    0.89277   1.00
C5       0.72290    1.00262    0.91301   1.00
H2       0.71438    0.97268    0.92219   1.00
H2       0.69652    1.01811    0.90212   1.00
C5       0.73807    1.02445    0.94923   1.00
C5       0.65909    1.01105    0.74298   1.00
C5       0.84218    1.11070    0.75334   1.00
H2       0.67441    0.99088    0.72269   1.00
H2       0.64911    1.03712    0.72622   1.00
H2       0.85286    1.08300    0.76671   1.00
H2       0.82962    1.12895    0.77732   1.00
H2       0.88108    1.19030    0.76066   1.00
H2       0.61747    0.94247    0.71698   1.00
H2       0.59320    0.98763    0.70336   1.00
C2       0.74887    0.89605    0.75243   1.00
C3       0.74004    0.91597    0.71747   1.00
O2       0.72188    0.89674    0.68711   1.00
C3       0.75973    0.91826    0.78550   1.00
H1       0.76764    0.90385    0.81241   1.00
C3a      0.74124    0.95713    0.71658   1.00
H1       0.73224    0.97202    0.69025   1.00
C3b      0.75968    0.95922    0.78488   1.00
C4       0.75032    0.97900    0.75028   1.00
O3       0.68328    1.02167    0.77456   1.00
C5       0.74926    0.88720    0.65788   1.00
H2       0.76367    0.91391    0.64601   1.00
C5       0.72694    0.86674    0.62529   1.00
H2       0.77220    0.86726    0.66948   1.00
H2       0.71210    0.88932    0.60724   1.00
H2       0.70346    0.84907    0.63918   1.00
C5       0.75320    0.84082    0.59967   1.00
H2       0.77819    0.85824    0.58856   1.00
C5       0.73023    0.82453    0.56466   1.00
H2       0.76439    0.81507    0.61631   1.00
C5       0.62357    0.99017    0.75974   1.00
H2       0.60471    1.01215    0.77450   1.00
H2       0.63378    0.96952    0.78268   1.00
C5       0.60059    0.96800    0.72814   1.00
C5       0.56219    0.95225    0.74533   1.00
H2       0.93485    1.19286    0.71762   1.00
C5       0.96351    1.18912    0.77494   1.00
H2       0.95191    1.14323    0.73159   1.00
C5       0.70375    1.03337    0.97681   1.00
H2       0.76037    1.00551    0.96505   1.00
H2       0.75241    1.05293    0.93981   1.00
C5       0.75866    0.80497    0.53590   1.00
H2       0.70813    0.80211    0.57537   1.00
H2       0.71429    0.84937    0.54934   1.00
H2       0.56857    0.93602    0.77365   1.00
H2       0.54158    0.97761    0.75149   1.00
C5       0.54304    0.92417    0.71596   1.00
H2       0.94414    1.20116    0.79914   1.00
H2       0.98357    1.16571    0.78741   1.00
H2       0.98184    1.21374    0.76212   1.00
H2       0.67633    1.01820    0.96565   1.00
H2       0.71089    1.02229    1.00734   1.00
H2       0.69860    1.06621    0.97785   1.00
H2       0.78230    0.78889    0.55288   1.00
H2       0.74204    0.78336    0.51686   1.00
H2       0.77268    0.82819    0.51666   1.00
H2       0.55302    0.89307    0.72223   1.00
H2       0.50996    0.92598    0.71884   1.00
H2       0.55196    0.93266    0.68507   1.00
C5       0.36782    0.73348    0.62430   1.00
H2       0.35255    0.70819    0.63760   1.00
H2       0.38910    0.72094    0.60331   1.00
C5       0.33806    0.75939    0.60283   1.00
C5       0.32877    0.74271    0.56216   1.00
H2       0.34985    0.78947    0.59950   1.00
O3       0.52000    0.81761    0.72891   1.00
C4       0.47900    0.74972    0.75032   1.00
C3c      0.45757    0.73868    0.71718   1.00
H1       0.47275    0.72983    0.69099   1.00
C3d      0.45865    0.76062    0.78433   1.00
C3       0.41646    0.73938    0.71705   1.00
O2       0.39752    0.72368    0.68531   1.00
C3       0.41773    0.76207    0.78406   1.00
H1       0.40343    0.77194    0.81038   1.00
C2       0.39561    0.75140    0.75067   1.00
C5       0.52121    0.84561    0.75911   1.00
H2       0.55162    0.85467    0.76627   1.00
H2       0.50734    0.83418    0.78626   1.00
C5       0.49871    0.88139    0.74522   1.00
H2       0.46863    0.87214    0.73702   1.00
H2       0.51302    0.89277    0.71832   1.00
C5       0.49738    0.91301    0.77710   1.00
H2       0.52732    0.92219    0.78562   1.00
H2       0.48189    0.90212    0.80348   1.00
C5       0.47555    0.94923    0.76193   1.00
C5       0.48895    0.74298    0.84091   1.00
C5       0.38930    0.75334    0.65782   1.00
H2       0.50912    0.72269    0.82559   1.00
H2       0.46288    0.72622    0.85089   1.00
H2       0.41700    0.76671    0.64714   1.00
H2       0.37105    0.77732    0.67038   1.00
H2       0.30970    0.76066    0.61892   1.00
H2       0.55753    0.71698    0.88253   1.00
H2       0.51237    0.70336    0.90680   1.00
C2       0.60395    0.75243    0.75113   1.00
C3       0.58403    0.71747    0.75996   1.00
O2       0.60326    0.68711    0.77812   1.00
C3       0.58174    0.78550    0.74027   1.00
H1       0.59615    0.81241    0.73236   1.00
C3a      0.54287    0.71658    0.75876   1.00
H1       0.52798    0.69025    0.76776   1.00
C3b      0.54078    0.78488    0.74032   1.00
C4       0.52100    0.75028    0.74968   1.00
O3       0.47833    0.77456    0.81672   1.00
C5       0.61280    0.65788    0.75074   1.00
H2       0.58609    0.64601    0.73633   1.00
C5       0.63326    0.62529    0.77306   1.00
H2       0.63274    0.66948    0.72780   1.00
H2       0.61068    0.60724    0.78790   1.00
H2       0.65093    0.63918    0.79654   1.00
C5       0.65918    0.59967    0.74680   1.00
H2       0.64176    0.58856    0.72181   1.00
C5       0.67547    0.56466    0.76977   1.00
H2       0.68493    0.61631    0.73561   1.00
C5       0.50983    0.75974    0.87643   1.00
H2       0.48785    0.77450    0.89529   1.00
H2       0.53048    0.78268    0.86622   1.00
C5       0.53200    0.72814    0.89941   1.00
C5       0.54775    0.74533    0.93781   1.00
H2       0.30714    0.71762    0.56515   1.00
C5       0.31088    0.77494    0.53649   1.00
H2       0.35677    0.73159    0.54809   1.00
C5       0.46663    0.97681    0.79625   1.00
H2       0.49449    0.96505    0.73963   1.00
H2       0.44707    0.93981    0.74759   1.00
C5       0.69503    0.53590    0.74134   1.00
H2       0.69789    0.57537    0.79187   1.00
H2       0.65063    0.54934    0.78571   1.00
H2       0.56398    0.77365    0.93143   1.00
H2       0.52239    0.75149    0.95842   1.00
C5       0.57583    0.71596    0.95696   1.00
H2       0.29884    0.79914    0.55586   1.00
H2       0.33429    0.78741    0.51643   1.00
H2       0.28626    0.76212    0.51816   1.00
H2       0.48180    0.96565    0.82367   1.00
H2       0.47771    1.00734    0.78911   1.00
H2       0.43379    0.97785    0.80140   1.00
H2       0.71111    0.55288    0.71770   1.00
H2       0.71664    0.51686    0.75796   1.00
H2       0.67181    0.51666    0.72732   1.00
H2       0.60693    0.72223    0.94698   1.00
H2       0.57402    0.71884    0.99004   1.00
H2       0.56734    0.68507    0.94804   1.00
C5       1.13218    0.73348    0.87570   1.00
H2       1.14745    0.70819    0.86240   1.00
H2       1.11090    0.72094    0.89669   1.00
C5       1.16194    0.75939    0.89717   1.00
C5       1.17123    0.74271    0.93784   1.00
H2       1.15015    0.78947    0.90050   1.00
O3       0.98000    0.81761    0.77109   1.00
C4       1.02100    0.74972    0.74968   1.00
C3c      1.04243    0.73868    0.78282   1.00
H1       1.02725    0.72983    0.80901   1.00
C3d      1.04135    0.76062    0.71567   1.00
C3       1.08354    0.73938    0.78295   1.00
O2       1.10248    0.72368    0.81469   1.00
C3       1.08227    0.76207    0.71594   1.00
H1       1.09657    0.77194    0.68962   1.00
C2       1.10439    0.75140    0.74933   1.00
C5       0.97879    0.84561    0.74089   1.00
H2       0.94838    0.85467    0.73373   1.00
H2       0.99266    0.83418    0.71374   1.00
C5       1.00129    0.88139    0.75478   1.00
H2       1.03137    0.87214    0.76298   1.00
H2       0.98698    0.89277    0.78168   1.00
C5       1.00262    0.91301    0.72290   1.00
H2       0.97268    0.92219    0.71438   1.00
H2       1.01811    0.90212    0.69652   1.00
C5       1.02445    0.94923    0.73807   1.00
C5       1.01105    0.74298    0.65909   1.00
C5       1.11070    0.75334    0.84218   1.00
H2       0.99088    0.72269    0.67441   1.00
H2       1.03712    0.72622    0.64911   1.00
H2       1.08300    0.76671    0.85286   1.00
H2       1.12895    0.77732    0.82962   1.00
H2       1.19030    0.76066    0.88108   1.00
H2       0.94247    0.71698    0.61747   1.00
H2       0.98763    0.70336    0.59320   1.00
C2       0.89605    0.75243    0.74887   1.00
C3       0.91597    0.71747    0.74004   1.00
O2       0.89674    0.68711    0.72188   1.00
C3       0.91826    0.78550    0.75973   1.00
H1       0.90385    0.81241    0.76764   1.00
C3a      0.95713    0.71658    0.74124   1.00
H1       0.97202    0.69025    0.73224   1.00
C3b      0.95922    0.78488    0.75968   1.00
C4       0.97900    0.75028    0.75032   1.00
O3       1.02167    0.77456    0.68328   1.00
C5       0.88720    0.65788    0.74926   1.00
H2       0.91391    0.64601    0.76367   1.00
C5       0.86674    0.62529    0.72694   1.00
H2       0.86726    0.66948    0.77220   1.00
H2       0.88932    0.60724    0.71210   1.00
H2       0.84907    0.63918    0.70346   1.00
C5       0.84082    0.59967    0.75320   1.00
H2       0.85824    0.58856    0.77819   1.00
C5       0.82453    0.56466    0.73023   1.00
H2       0.81507    0.61631    0.76439   1.00
C5       0.99017    0.75974    0.62357   1.00
H2       1.01215    0.77450    0.60471   1.00
H2       0.96952    0.78268    0.63378   1.00
C5       0.96800    0.72814    0.60059   1.00
C5       0.95225    0.74533    0.56219   1.00
H2       1.19286    0.71762    0.93485   1.00
C5       1.18912    0.77494    0.96351   1.00
H2       1.14323    0.73159    0.95191   1.00
C5       1.03337    0.97681    0.70375   1.00
H2       1.00551    0.96505    0.76037   1.00
H2       1.05293    0.93981    0.75241   1.00
C5       0.80497    0.53590    0.75866   1.00
H2       0.80211    0.57537    0.70813   1.00
H2       0.84937    0.54934    0.71429   1.00
H2       0.93602    0.77365    0.56857   1.00
H2       0.97761    0.75149    0.54158   1.00
C5       0.92417    0.71596    0.54304   1.00
H2       1.20116    0.79914    0.94414   1.00
H2       1.16571    0.78741    0.98357   1.00
H2       1.21374    0.76212    0.98184   1.00
H2       1.01820    0.96565    0.67633   1.00
H2       1.02229    1.00734    0.71089   1.00
H2       1.06621    0.97785    0.69860   1.00
H2       0.78889    0.55288    0.78230   1.00
H2       0.78336    0.51686    0.74204   1.00
H2       0.82819    0.51666    0.77268   1.00
H2       0.89307    0.72223    0.55302   1.00
H2       0.92598    0.71884    0.50996   1.00
H2       0.93266    0.68507    0.55196   1.00
C5       0.62430    0.36782    0.73348   1.00
H2       0.63760    0.35255    0.70819   1.00
H2       0.60331    0.38910    0.72094   1.00
C5       0.60283    0.33806    0.75939   1.00
C5       0.56216    0.32877    0.74271   1.00
H2       0.59950    0.34985    0.78947   1.00
O3       0.72891    0.52000    0.81761   1.00
C4       0.75032    0.47900    0.74972   1.00
C3c      0.71718    0.45757    0.73868   1.00
H1       0.69099    0.47275    0.72983   1.00
C3d      0.78433    0.45865    0.76062   1.00
C3       0.71705    0.41646    0.73938   1.00
O2       0.68531    0.39752    0.72368   1.00
C3       0.78406    0.41773    0.76207   1.00
H1       0.81038    0.40343    0.77194   1.00
C2       0.75067    0.39561    0.75140   1.00
C5       0.75911    0.52121    0.84561   1.00
H2       0.76627    0.55162    0.85467   1.00
H2       0.78626    0.50734    0.83418   1.00
C5       0.74522    0.49871    0.88139   1.00
H2       0.73702    0.46863    0.87214   1.00
H2       0.71832    0.51302    0.89277   1.00
C5       0.77710    0.49738    0.91301   1.00
H2       0.78562    0.52732    0.92219   1.00
H2       0.80348    0.48189    0.90212   1.00
C5       0.76193    0.47555    0.94923   1.00
C5       0.84091    0.48895    0.74298   1.00
C5       0.65782    0.38930    0.75334   1.00
H2       0.82559    0.50912    0.72269   1.00
H2       0.85089    0.46288    0.72622   1.00
H2       0.64714    0.41700    0.76671   1.00
H2       0.67038    0.37105    0.77732   1.00
H2       0.61892    0.30970    0.76066   1.00
H2       0.88253    0.55753    0.71698   1.00
H2       0.90680    0.51237    0.70336   1.00
C2       0.75113    0.60395    0.75243   1.00
C3       0.75996    0.58403    0.71747   1.00
O2       0.77812    0.60326    0.68711   1.00
C3       0.74027    0.58174    0.78550   1.00
H1       0.73236    0.59615    0.81241   1.00
C3a      0.75876    0.54287    0.71658   1.00
H1       0.76776    0.52798    0.69025   1.00
C3b      0.74032    0.54078    0.78488   1.00
C4       0.74968    0.52100    0.75028   1.00
O3       0.81672    0.47833    0.77456   1.00
C5       0.75074    0.61280    0.65788   1.00
H2       0.73633    0.58609    0.64601   1.00
C5       0.77306    0.63326    0.62529   1.00
H2       0.72780    0.63274    0.66948   1.00
H2       0.78790    0.61068    0.60724   1.00
H2       0.79654    0.65093    0.63918   1.00
C5       0.74680    0.65918    0.59967   1.00
H2       0.72181    0.64176    0.58856   1.00
C5       0.76977    0.67547    0.56466   1.00
H2       0.73561    0.68493    0.61631   1.00
C5       0.87643    0.50983    0.75974   1.00
H2       0.89529    0.48785    0.77450   1.00
H2       0.86622    0.53048    0.78268   1.00
C5       0.89941    0.53200    0.72814   1.00
C5       0.93781    0.54775    0.74533   1.00
H2       0.56515    0.30714    0.71762   1.00
C5       0.53649    0.31088    0.77494   1.00
H2       0.54809    0.35677    0.73159   1.00
C5       0.79625    0.46663    0.97681   1.00
H2       0.73963    0.49449    0.96505   1.00
H2       0.74759    0.44707    0.93981   1.00
C5       0.74134    0.69503    0.53590   1.00
H2       0.79187    0.69789    0.57537   1.00
H2       0.78571    0.65063    0.54934   1.00
H2       0.93143    0.56398    0.77365   1.00
H2       0.95842    0.52239    0.75149   1.00
C5       0.95696    0.57583    0.71596   1.00
H2       0.55586    0.29884    0.79914   1.00
H2       0.51643    0.33429    0.78741   1.00
H2       0.51816    0.28626    0.76212   1.00
H2       0.82367    0.48180    0.96565   1.00
H2       0.78911    0.47771    1.00734   1.00
H2       0.80140    0.43379    0.97785   1.00
H2       0.71770    0.71111    0.55288   1.00
H2       0.75796    0.71664    0.51686   1.00
H2       0.72732    0.67181    0.51666   1.00
H2       0.94698    0.60693    0.72223   1.00
H2       0.99004    0.57402    0.71884   1.00
H2       0.94804    0.56734    0.68507   1.00
C5       0.73348    0.62430    0.36782   1.00
H2       0.70819    0.63760    0.35255   1.00
H2       0.72094    0.60331    0.38910   1.00
C5       0.75939    0.60283    0.33806   1.00
C5       0.74271    0.56216    0.32877   1.00
H2       0.78947    0.59950    0.34985   1.00
O3       0.81761    0.72891    0.52000   1.00
C4       0.74972    0.75032    0.47900   1.00
C3c      0.73868    0.71718    0.45757   1.00
H1       0.72983    0.69099    0.47275   1.00
C3d      0.76062    0.78433    0.45865   1.00
C3       0.73938    0.71705    0.41646   1.00
O2       0.72368    0.68531    0.39752   1.00
C3       0.76207    0.78406    0.41773   1.00
H1       0.77194    0.81038    0.40343   1.00
C2       0.75140    0.75067    0.39561   1.00
C5       0.84561    0.75911    0.52121   1.00
H2       0.85467    0.76627    0.55162   1.00
H2       0.83418    0.78626    0.50734   1.00
C5       0.88139    0.74522    0.49871   1.00
H2       0.87214    0.73702    0.46863   1.00
H2       0.89277    0.71832    0.51302   1.00
C5       0.91301    0.77710    0.49738   1.00
H2       0.92219    0.78562    0.52732   1.00
H2       0.90212    0.80348    0.48189   1.00
C5       0.94923    0.76193    0.47555   1.00
C5       0.74298    0.84091    0.48895   1.00
C5       0.75334    0.65782    0.38930   1.00
H2       0.72269    0.82559    0.50912   1.00
H2       0.72622    0.85089    0.46288   1.00
H2       0.76671    0.64714    0.41700   1.00
H2       0.77732    0.67038    0.37105   1.00
H2       0.76066    0.61892    0.30970   1.00
H2       0.71698    0.88253    0.55753   1.00
H2       0.70336    0.90680    0.51237   1.00
C2       0.75243    0.75113    0.60395   1.00
C3       0.71747    0.75996    0.58403   1.00
O2       0.68711    0.77812    0.60326   1.00
C3       0.78550    0.74027    0.58174   1.00
H1       0.81241    0.73236    0.59615   1.00
C3a      0.71658    0.75876    0.54287   1.00
H1       0.69025    0.76776    0.52798   1.00
C3b      0.78488    0.74032    0.54078   1.00
C4       0.75028    0.74968    0.52100   1.00
O3       0.77456    0.81672    0.47833   1.00
C5       0.65788    0.75074    0.61280   1.00
H2       0.64601    0.73633    0.58609   1.00
C5       0.62529    0.77306    0.63326   1.00
H2       0.66948    0.72780    0.63274   1.00
H2       0.60724    0.78790    0.61068   1.00
H2       0.63918    0.79654    0.65093   1.00
C5       0.59967    0.74680    0.65918   1.00
H2       0.58856    0.72181    0.64176   1.00
C5       0.56466    0.76977    0.67547   1.00
H2       0.61631    0.73561    0.68493   1.00
C5       0.75974    0.87643    0.50983   1.00
H2       0.77450    0.89529    0.48785   1.00
H2       0.78268    0.86622    0.53048   1.00
C5       0.72814    0.89941    0.53200   1.00
C5       0.74533    0.93781    0.54775   1.00
H2       0.71762    0.56515    0.30714   1.00
C5       0.77494    0.53649    0.31088   1.00
H2       0.73159    0.54809    0.35677   1.00
C5       0.97681    0.79625    0.46663   1.00
H2       0.96505    0.73963    0.49449   1.00
H2       0.93981    0.74759    0.44707   1.00
C5       0.53590    0.74134    0.69503   1.00
H2       0.57537    0.79187    0.69789   1.00
H2       0.54934    0.78571    0.65063   1.00
H2       0.77365    0.93143    0.56398   1.00
H2       0.75149    0.95842    0.52239   1.00
C5       0.71596    0.95696    0.57583   1.00
H2       0.79914    0.55586    0.29884   1.00
H2       0.78741    0.51643    0.33429   1.00
H2       0.76212    0.51816    0.28626   1.00
H2       0.96565    0.82367    0.48180   1.00
H2       1.00734    0.78911    0.47771   1.00
H2       0.97785    0.80140    0.43379   1.00
H2       0.55288    0.71770    0.71111   1.00
H2       0.51686    0.75796    0.71664   1.00
H2       0.51666    0.72732    0.67181   1.00
H2       0.72223    0.94698    0.60693   1.00
H2       0.71884    0.99004    0.57402   1.00
H2       0.68507    0.94804    0.56734   1.00
C5       0.23348    0.37570    1.13218   1.00
H2       0.20819    0.36240    1.14745   1.00
H2       0.22094    0.39669    1.11090   1.00
C5       0.25939    0.39717    1.16194   1.00
C5       0.24271    0.43784    1.17123   1.00
H2       0.28947    0.40050    1.15015   1.00
O3       0.31761    0.27109    0.98000   1.00
C4       0.24972    0.24968    1.02100   1.00
C3c      0.23868    0.28282    1.04243   1.00
H1       0.22983    0.30901    1.02725   1.00
C3d      0.26062    0.21567    1.04135   1.00
C3       0.23938    0.28295    1.08354   1.00
O2       0.22368    0.31469    1.10248   1.00
C3       0.26207    0.21594    1.08227   1.00
H1       0.27194    0.18962    1.09657   1.00
C2       0.25140    0.24933    1.10439   1.00
C5       0.34561    0.24089    0.97879   1.00
H2       0.35467    0.23373    0.94838   1.00
H2       0.33418    0.21374    0.99266   1.00
C5       0.38139    0.25478    1.00129   1.00
H2       0.37214    0.26298    1.03137   1.00
H2       0.39277    0.28168    0.98698   1.00
C5       0.41301    0.22290    1.00262   1.00
H2       0.42219    0.21438    0.97268   1.00
H2       0.40212    0.19652    1.01811   1.00
C5       0.44923    0.23807    1.02445   1.00
C5       0.24298    0.15909    1.01105   1.00
C5       0.25334    0.34218    1.11070   1.00
H2       0.22269    0.17441    0.99088   1.00
H2       0.22622    0.14911    1.03712   1.00
H2       0.26671    0.35286    1.08300   1.00
H2       0.27732    0.32962    1.12895   1.00
H2       0.26066    0.38108    1.19030   1.00
H2       0.21698    0.11747    0.94247   1.00
H2       0.20336    0.09320    0.98763   1.00
C2       0.25243    0.24887    0.89605   1.00
C3       0.21747    0.24004    0.91597   1.00
O2       0.18711    0.22188    0.89674   1.00
C3       0.28550    0.25973    0.91826   1.00
H1       0.31241    0.26764    0.90385   1.00
C3a      0.21658    0.24124    0.95713   1.00
H1       0.19025    0.23224    0.97202   1.00
C3b      0.28488    0.25968    0.95922   1.00
C4       0.25028    0.25032    0.97900   1.00
O3       0.27456    0.18328    1.02167   1.00
C5       0.15788    0.24926    0.88720   1.00
H2       0.14601    0.26367    0.91391   1.00
C5       0.12529    0.22694    0.86674   1.00
H2       0.16948    0.27220    0.86726   1.00
H2       0.10724    0.21210    0.88932   1.00
H2       0.13918    0.20346    0.84907   1.00
C5       0.09967    0.25320    0.84082   1.00
H2       0.08856    0.27819    0.85824   1.00
C5       0.06466    0.23023    0.82453   1.00
H2       0.11631    0.26439    0.81507   1.00
C5       0.25974    0.12357    0.99017   1.00
H2       0.27450    0.10471    1.01215   1.00
H2       0.28268    0.13378    0.96952   1.00
C5       0.22814    0.10059    0.96800   1.00
C5       0.24533    0.06219    0.95225   1.00
H2       0.21762    0.43485    1.19286   1.00
C5       0.27494    0.46351    1.18912   1.00
H2       0.23159    0.45191    1.14323   1.00
C5       0.47681    0.20375    1.03337   1.00
H2       0.46505    0.26037    1.00551   1.00
H2       0.43981    0.25241    1.05293   1.00
C5       0.03590    0.25866    0.80497   1.00
H2       0.07537    0.20813    0.80211   1.00
H2       0.04934    0.21429    0.84937   1.00
H2       0.27365    0.06857    0.93602   1.00
H2       0.25149    0.04158    0.97761   1.00
C5       0.21596    0.04304    0.92417   1.00
H2       0.29914    0.44414    1.20116   1.00
H2       0.28741    0.48357    1.16571   1.00
H2       0.26212    0.48184    1.21374   1.00
H2       0.46565    0.17633    1.01820   1.00
H2       0.50734    0.21089    1.02229   1.00
H2       0.47785    0.19860    1.06621   1.00
H2       0.05288    0.28230    0.78889   1.00
H2       0.01686    0.24204    0.78336   1.00
H2       0.01666    0.27268    0.82819   1.00
H2       0.22223    0.05302    0.89307   1.00
H2       0.21884    0.00996    0.92598   1.00
H2       0.18507    0.05196    0.93266   1.00
C5       0.37570    0.63218    0.73348   1.00
H2       0.36240    0.64745    0.70819   1.00
H2       0.39669    0.61090    0.72094   1.00
C5       0.39717    0.66194    0.75939   1.00
C5       0.43784    0.67123    0.74271   1.00
H2       0.40050    0.65015    0.78947   1.00
O3       0.27109    0.48000    0.81761   1.00
C4       0.24968    0.52100    0.74972   1.00
C3c      0.28282    0.54243    0.73868   1.00
H1       0.30901    0.52725    0.72983   1.00
C3d      0.21567    0.54135    0.76062   1.00
C3       0.28295    0.58354    0.73938   1.00
O2       0.31469    0.60248    0.72368   1.00
C3       0.21594    0.58227    0.76207   1.00
H1       0.18962    0.59657    0.77194   1.00
C2       0.24933    0.60439    0.75140   1.00
C5       0.24089    0.47879    0.84561   1.00
H2       0.23373    0.44838    0.85467   1.00
H2       0.21374    0.49266    0.83418   1.00
C5       0.25478    0.50129    0.88139   1.00
H2       0.26298    0.53137    0.87214   1.00
H2       0.28168    0.48698    0.89277   1.00
C5       0.22290    0.50262    0.91301   1.00
H2       0.21438    0.47268    0.92219   1.00
H2       0.19652    0.51811    0.90212   1.00
C5       0.23807    0.52445    0.94923   1.00
C5       0.15909    0.51105    0.74298   1.00
C5       0.34218    0.61070    0.75334   1.00
H2       0.17441    0.49088    0.72269   1.00
H2       0.14911    0.53712    0.72622   1.00
H2       0.35286    0.58300    0.76671   1.00
H2       0.32962    0.62895    0.77732   1.00
H2       0.38108    0.69030    0.76066   1.00
H2       0.11747    0.44247    0.71698   1.00
H2       0.09320    0.48763    0.70336   1.00
C2       0.24887    0.39605    0.75243   1.00
C3       0.24004    0.41597    0.71747   1.00
O2       0.22188    0.39674    0.68711   1.00
C3       0.25973    0.41826    0.78550   1.00
H1       0.26764    0.40385    0.81241   1.00
C3a      0.24124    0.45713    0.71658   1.00
H1       0.23224    0.47202    0.69025   1.00
C3b      0.25968    0.45922    0.78488   1.00
C4       0.25032    0.47900    0.75028   1.00
O3       0.18328    0.52167    0.77456   1.00
C5       0.24926    0.38720    0.65788   1.00
H2       0.26367    0.41391    0.64601   1.00
C5       0.22694    0.36674    0.62529   1.00
H2       0.27220    0.36726    0.66948   1.00
H2       0.21210    0.38932    0.60724   1.00
H2       0.20346    0.34907    0.63918   1.00
C5       0.25320    0.34082    0.59967   1.00
H2       0.27819    0.35824    0.58856   1.00
C5       0.23023    0.32453    0.56466   1.00
H2       0.26439    0.31507    0.61631   1.00
C5       0.12357    0.49017    0.75974   1.00
H2       0.10471    0.51215    0.77450   1.00
H2       0.13378    0.46952    0.78268   1.00
C5       0.10059    0.46800    0.72814   1.00
C5       0.06219    0.45225    0.74533   1.00
H2       0.43485    0.69286    0.71762   1.00
C5       0.46351    0.68912    0.77494   1.00
H2       0.45191    0.64323    0.73159   1.00
C5       0.20375    0.53337    0.97681   1.00
H2       0.26037    0.50551    0.96505   1.00
H2       0.25241    0.55293    0.93981   1.00
C5       0.25866    0.30497    0.53590   1.00
H2       0.20813    0.30211    0.57537   1.00
H2       0.21429    0.34937    0.54934   1.00
H2       0.06857    0.43602    0.77365   1.00
H2       0.04158    0.47761    0.75149   1.00
C5       0.04304    0.42417    0.71596   1.00
H2       0.44414    0.70116    0.79914   1.00
H2       0.48357    0.66571    0.78741   1.00
H2       0.48184    0.71374    0.76212   1.00
H2       0.17633    0.51820    0.96565   1.00
H2       0.21089    0.52229    1.00734   1.00
H2       0.19860    0.56621    0.97785   1.00
H2       0.28230    0.28889    0.55288   1.00
H2       0.24204    0.28336    0.51686   1.00
H2       0.27268    0.32819    0.51666   1.00
H2       0.05302    0.39307    0.72223   1.00
H2       0.00996    0.42598    0.71884   1.00
H2       0.05196    0.43266    0.68507   1.00
C5       -0.13218   0.23348    0.62430   1.00
H2       -0.14745   0.20819    0.63760   1.00
H2       -0.11090   0.22094    0.60331   1.00
C5       -0.16194   0.25939    0.60283   1.00
C5       -0.17123   0.24271    0.56216   1.00
H2       -0.15015   0.28947    0.59950   1.00
O3       0.02000    0.31761    0.72891   1.00
C4       -0.02100   0.24972    0.75032   1.00
C3c      -0.04243   0.23868    0.71718   1.00
H1       -0.02725   0.22983    0.69099   1.00
C3d      -0.04135   0.26062    0.78433   1.00
C3       -0.08354   0.23938    0.71705   1.00
O2       -0.10248   0.22368    0.68531   1.00
C3       -0.08227   0.26207    0.78406   1.00
H1       -0.09657   0.27194    0.81038   1.00
C2       -0.10439   0.25140    0.75067   1.00
C5       0.02121    0.34561    0.75911   1.00
H2       0.05162    0.35467    0.76627   1.00
H2       0.00734    0.33418    0.78626   1.00
C5       -0.00129   0.38139    0.74522   1.00
H2       -0.03137   0.37214    0.73702   1.00
H2       0.01302    0.39277    0.71832   1.00
C5       -0.00262   0.41301    0.77710   1.00
H2       0.02732    0.42219    0.78562   1.00
H2       -0.01811   0.40212    0.80348   1.00
C5       -0.02445   0.44923    0.76193   1.00
C5       -0.01105   0.24298    0.84091   1.00
C5       -0.11070   0.25334    0.65782   1.00
H2       0.00912    0.22269    0.82559   1.00
H2       -0.03712   0.22622    0.85089   1.00
H2       -0.08300   0.26671    0.64714   1.00
H2       -0.12895   0.27732    0.67038   1.00
H2       -0.19030   0.26066    0.61892   1.00
H2       0.05753    0.21698    0.88253   1.00
H2       0.01237    0.20336    0.90680   1.00
C2       0.10395    0.25243    0.75113   1.00
C3       0.08403    0.21747    0.75996   1.00
O2       0.10326    0.18711    0.77812   1.00
C3       0.08174    0.28550    0.74027   1.00
H1       0.09615    0.31241    0.73236   1.00
C3a      0.04287    0.21658    0.75876   1.00
H1       0.02798    0.19025    0.76776   1.00
C3b      0.04078    0.28488    0.74032   1.00
C4       0.02100    0.25028    0.74968   1.00
O3       -0.02167   0.27456    0.81672   1.00
C5       0.11280    0.15788    0.75074   1.00
H2       0.08609    0.14601    0.73633   1.00
C5       0.13326    0.12529    0.77306   1.00
H2       0.13274    0.16948    0.72780   1.00
H2       0.11068    0.10724    0.78790   1.00
H2       0.15093    0.13918    0.79654   1.00
C5       0.15918    0.09967    0.74680   1.00
H2       0.14176    0.08856    0.72181   1.00
C5       0.17547    0.06466    0.76977   1.00
H2       0.18493    0.11631    0.73561   1.00
C5       0.00983    0.25974    0.87643   1.00
H2       -0.01215   0.27450    0.89529   1.00
H2       0.03048    0.28268    0.86622   1.00
C5       0.03200    0.22814    0.89941   1.00
C5       0.04775    0.24533    0.93781   1.00
H2       -0.19286   0.21762    0.56515   1.00
C5       -0.18912   0.27494    0.53649   1.00
H2       -0.14323   0.23159    0.54809   1.00
C5       -0.03337   0.47681    0.79625   1.00
H2       -0.00551   0.46505    0.73963   1.00
H2       -0.05293   0.43981    0.74759   1.00
C5       0.19503    0.03590    0.74134   1.00
H2       0.19789    0.07537    0.79187   1.00
H2       0.15063    0.04934    0.78571   1.00
H2       0.06398    0.27365    0.93143   1.00
H2       0.02239    0.25149    0.95842   1.00
C5       0.07583    0.21596    0.95696   1.00
H2       -0.20116   0.29914    0.55586   1.00
H2       -0.16571   0.28741    0.51643   1.00
H2       -0.21374   0.26212    0.51816   1.00
H2       -0.01820   0.46565    0.82367   1.00
H2       -0.02229   0.50734    0.78911   1.00
H2       -0.06621   0.47785    0.80140   1.00
H2       0.21111    0.05288    0.71770   1.00
H2       0.21664    0.01686    0.75796   1.00
H2       0.17181    0.01666    0.72732   1.00
H2       0.10693    0.22223    0.94698   1.00
H2       0.07402    0.21884    0.99004   1.00
H2       0.06734    0.18507    0.94804   1.00
C5       0.63218    0.23348    0.87570   1.00
H2       0.64745    0.20819    0.86240   1.00
H2       0.61090    0.22094    0.89669   1.00
C5       0.66194    0.25939    0.89717   1.00
C5       0.67123    0.24271    0.93784   1.00
H2       0.65015    0.28947    0.90050   1.00
O3       0.48000    0.31761    0.77109   1.00
C4       0.52100    0.24972    0.74968   1.00
C3c      0.54243    0.23868    0.78282   1.00
H1       0.52725    0.22983    0.80901   1.00
C3d      0.54135    0.26062    0.71567   1.00
C3       0.58354    0.23938    0.78295   1.00
O2       0.60248    0.22368    0.81469   1.00
C3       0.58227    0.26207    0.71594   1.00
H1       0.59657    0.27194    0.68962   1.00
C2       0.60439    0.25140    0.74933   1.00
C5       0.47879    0.34561    0.74089   1.00
H2       0.44838    0.35467    0.73373   1.00
H2       0.49266    0.33418    0.71374   1.00
C5       0.50129    0.38139    0.75478   1.00
H2       0.53137    0.37214    0.76298   1.00
H2       0.48698    0.39277    0.78168   1.00
C5       0.50262    0.41301    0.72290   1.00
H2       0.47268    0.42219    0.71438   1.00
H2       0.51811    0.40212    0.69652   1.00
C5       0.52445    0.44923    0.73807   1.00
C5       0.51105    0.24298    0.65909   1.00
C5       0.61070    0.25334    0.84218   1.00
H2       0.49088    0.22269    0.67441   1.00
H2       0.53712    0.22622    0.64911   1.00
H2       0.58300    0.26671    0.85286   1.00
H2       0.62895    0.27732    0.82962   1.00
H2       0.69030    0.26066    0.88108   1.00
H2       0.44247    0.21698    0.61747   1.00
H2       0.48763    0.20336    0.59320   1.00
C2       0.39605    0.25243    0.74887   1.00
C3       0.41597    0.21747    0.74004   1.00
O2       0.39674    0.18711    0.72188   1.00
C3       0.41826    0.28550    0.75973   1.00
H1       0.40385    0.31241    0.76764   1.00
C3a      0.45713    0.21658    0.74124   1.00
H1       0.47202    0.19025    0.73224   1.00
C3b      0.45922    0.28488    0.75968   1.00
C4       0.47900    0.25028    0.75032   1.00
O3       0.52167    0.27456    0.68328   1.00
C5       0.38720    0.15788    0.74926   1.00
H2       0.41391    0.14601    0.76367   1.00
C5       0.36674    0.12529    0.72694   1.00
H2       0.36726    0.16948    0.77220   1.00
H2       0.38932    0.10724    0.71210   1.00
H2       0.34907    0.13918    0.70346   1.00
C5       0.34082    0.09967    0.75320   1.00
H2       0.35824    0.08856    0.77819   1.00
C5       0.32453    0.06466    0.73023   1.00
H2       0.31507    0.11631    0.76439   1.00
C5       0.49017    0.25974    0.62357   1.00
H2       0.51215    0.27450    0.60471   1.00
H2       0.46952    0.28268    0.63378   1.00
C5       0.46800    0.22814    0.60059   1.00
C5       0.45225    0.24533    0.56219   1.00
H2       0.69286    0.21762    0.93485   1.00
C5       0.68912    0.27494    0.96351   1.00
H2       0.64323    0.23159    0.95191   1.00
C5       0.53337    0.47681    0.70375   1.00
H2       0.50551    0.46505    0.76037   1.00
H2       0.55293    0.43981    0.75241   1.00
C5       0.30497    0.03590    0.75866   1.00
H2       0.30211    0.07537    0.70813   1.00
H2       0.34937    0.04934    0.71429   1.00
H2       0.43602    0.27365    0.56857   1.00
H2       0.47761    0.25149    0.54158   1.00
C5       0.42417    0.21596    0.54304   1.00
H2       0.70116    0.29914    0.94414   1.00
H2       0.66571    0.28741    0.98357   1.00
H2       0.71374    0.26212    0.98184   1.00
H2       0.51820    0.46565    0.67633   1.00
H2       0.52229    0.50734    0.71089   1.00
H2       0.56621    0.47785    0.69860   1.00
H2       0.28889    0.05288    0.78230   1.00
H2       0.28336    0.01686    0.74204   1.00
H2       0.32819    0.01666    0.77268   1.00
H2       0.39307    0.22223    0.55302   1.00
H2       0.42598    0.21884    0.50996   1.00
H2       0.43266    0.18507    0.55196   1.00
C5       0.12430    -0.13218   0.73348   1.00
H2       0.13760    -0.14745   0.70819   1.00
H2       0.10331    -0.11090   0.72094   1.00
C5       0.10283    -0.16194   0.75939   1.00
C5       0.06216    -0.17123   0.74271   1.00
H2       0.09950    -0.15015   0.78947   1.00
O3       0.22891    0.02000    0.81761   1.00
C4       0.25032    -0.02100   0.74972   1.00
C3c      0.21718    -0.04243   0.73868   1.00
H1       0.19099    -0.02725   0.72983   1.00
C3d      0.28433    -0.04135   0.76062   1.00
C3       0.21705    -0.08354   0.73938   1.00
O2       0.18531    -0.10248   0.72368   1.00
C3       0.28406    -0.08227   0.76207   1.00
H1       0.31038    -0.09657   0.77194   1.00
C2       0.25067    -0.10439   0.75140   1.00
C5       0.25911    0.02121    0.84561   1.00
H2       0.26627    0.05162    0.85467   1.00
H2       0.28626    0.00734    0.83418   1.00
C5       0.24522    -0.00129   0.88139   1.00
H2       0.23702    -0.03137   0.87214   1.00
H2       0.21832    0.01302    0.89277   1.00
C5       0.27710    -0.00262   0.91301   1.00
H2       0.28562    0.02732    0.92219   1.00
H2       0.30348    -0.01811   0.90212   1.00
C5       0.26193    -0.02445   0.94923   1.00
C5       0.34091    -0.01105   0.74298   1.00
C5       0.15782    -0.11070   0.75334   1.00
H2       0.32559    0.00912    0.72269   1.00
H2       0.35089    -0.03712   0.72622   1.00
H2       0.14714    -0.08300   0.76671   1.00
H2       0.17038    -0.12895   0.77732   1.00
H2       0.11892    -0.19030   0.76066   1.00
H2       0.38253    0.05753    0.71698   1.00
H2       0.40680    0.01237    0.70336   1.00
C2       0.25113    0.10395    0.75243   1.00
C3       0.25996    0.08403    0.71747   1.00
O2       0.27812    0.10326    0.68711   1.00
C3       0.24027    0.08174    0.78550   1.00
H1       0.23236    0.09615    0.81241   1.00
C3a      0.25876    0.04287    0.71658   1.00
H1       0.26776    0.02798    0.69025   1.00
C3b      0.24032    0.04078    0.78488   1.00
C4       0.24968    0.02100    0.75028   1.00
O3       0.31672    -0.02167   0.77456   1.00
C5       0.25074    0.11280    0.65788   1.00
H2       0.23633    0.08609    0.64601   1.00
C5       0.27306    0.13326    0.62529   1.00
H2       0.22780    0.13274    0.66948   1.00
H2       0.28790    0.11068    0.60724   1.00
H2       0.29654    0.15093    0.63918   1.00
C5       0.24680    0.15918    0.59967   1.00
H2       0.22181    0.14176    0.58856   1.00
C5       0.26977    0.17547    0.56466   1.00
H2       0.23561    0.18493    0.61631   1.00
C5       0.37643    0.00983    0.75974   1.00
H2       0.39529    -0.01215   0.77450   1.00
H2       0.36622    0.03048    0.78268   1.00
C5       0.39941    0.03200    0.72814   1.00
C5       0.43781    0.04775    0.74533   1.00
H2       0.06515    -0.19286   0.71762   1.00
C5       0.03649    -0.18912   0.77494   1.00
H2       0.04809    -0.14323   0.73159   1.00
C5       0.29625    -0.03337   0.97681   1.00
H2       0.23963    -0.00551   0.96505   1.00
H2       0.24759    -0.05293   0.93981   1.00
C5       0.24134    0.19503    0.53590   1.00
H2       0.29187    0.19789    0.57537   1.00
H2       0.28571    0.15063    0.54934   1.00
H2       0.43143    0.06398    0.77365   1.00
H2       0.45842    0.02239    0.75149   1.00
C5       0.45696    0.07583    0.71596   1.00
H2       0.05586    -0.20116   0.79914   1.00
H2       0.01643    -0.16571   0.78741   1.00
H2       0.01816    -0.21374   0.76212   1.00
H2       0.32367    -0.01820   0.96565   1.00
H2       0.28911    -0.02229   1.00734   1.00
H2       0.30140    -0.06621   0.97785   1.00
H2       0.21770    0.21111    0.55288   1.00
H2       0.25796    0.21664    0.51686   1.00
H2       0.22732    0.17181    0.51666   1.00
H2       0.44698    0.10693    0.72223   1.00
H2       0.49004    0.07402    0.71884   1.00
H2       0.44804    0.06734    0.68507   1.00
C5       0.23348    0.12430    0.36782   1.00
H2       0.20819    0.13760    0.35255   1.00
H2       0.22094    0.10331    0.38910   1.00
C5       0.25939    0.10283    0.33806   1.00
C5       0.24271    0.06216    0.32877   1.00
H2       0.28947    0.09950    0.34985   1.00
O3       0.31761    0.22891    0.52000   1.00
C4       0.24972    0.25032    0.47900   1.00
C3c      0.23868    0.21718    0.45757   1.00
H1       0.22983    0.19099    0.47275   1.00
C3d      0.26062    0.28433    0.45865   1.00
C3       0.23938    0.21705    0.41646   1.00
O2       0.22368    0.18531    0.39752   1.00
C3       0.26207    0.28406    0.41773   1.00
H1       0.27194    0.31038    0.40343   1.00
C2       0.25140    0.25067    0.39561   1.00
C5       0.34561    0.25911    0.52121   1.00
H2       0.35467    0.26627    0.55162   1.00
H2       0.33418    0.28626    0.50734   1.00
C5       0.38139    0.24522    0.49871   1.00
H2       0.37214    0.23702    0.46863   1.00
H2       0.39277    0.21832    0.51302   1.00
C5       0.41301    0.27710    0.49738   1.00
H2       0.42219    0.28562    0.52732   1.00
H2       0.40212    0.30348    0.48189   1.00
C5       0.44923    0.26193    0.47555   1.00
C5       0.24298    0.34091    0.48895   1.00
C5       0.25334    0.15782    0.38930   1.00
H2       0.22269    0.32559    0.50912   1.00
H2       0.22622    0.35089    0.46288   1.00
H2       0.26671    0.14714    0.41700   1.00
H2       0.27732    0.17038    0.37105   1.00
H2       0.26066    0.11892    0.30970   1.00
H2       0.21698    0.38253    0.55753   1.00
H2       0.20336    0.40680    0.51237   1.00
C2       0.25243    0.25113    0.60395   1.00
C3       0.21747    0.25996    0.58403   1.00
O2       0.18711    0.27812    0.60326   1.00
C3       0.28550    0.24027    0.58174   1.00
H1       0.31241    0.23236    0.59615   1.00
C3a      0.21658    0.25876    0.54287   1.00
H1       0.19025    0.26776    0.52798   1.00
C3b      0.28488    0.24032    0.54078   1.00
C4       0.25028    0.24968    0.52100   1.00
O3       0.27456    0.31672    0.47833   1.00
C5       0.15788    0.25074    0.61280   1.00
H2       0.14601    0.23633    0.58609   1.00
C5       0.12529    0.27306    0.63326   1.00
H2       0.16948    0.22780    0.63274   1.00
H2       0.10724    0.28790    0.61068   1.00
H2       0.13918    0.29654    0.65093   1.00
C5       0.09967    0.24680    0.65918   1.00
H2       0.08856    0.22181    0.64176   1.00
C5       0.06466    0.26977    0.67547   1.00
H2       0.11631    0.23561    0.68493   1.00
C5       0.25974    0.37643    0.50983   1.00
H2       0.27450    0.39529    0.48785   1.00
H2       0.28268    0.36622    0.53048   1.00
C5       0.22814    0.39941    0.53200   1.00
C5       0.24533    0.43781    0.54775   1.00
H2       0.21762    0.06515    0.30714   1.00
C5       0.27494    0.03649    0.31088   1.00
H2       0.23159    0.04809    0.35677   1.00
C5       0.47681    0.29625    0.46663   1.00
H2       0.46505    0.23963    0.49449   1.00
H2       0.43981    0.24759    0.44707   1.00
C5       0.03590    0.24134    0.69503   1.00
H2       0.07537    0.29187    0.69789   1.00
H2       0.04934    0.28571    0.65063   1.00
H2       0.27365    0.43143    0.56398   1.00
H2       0.25149    0.45842    0.52239   1.00
C5       0.21596    0.45696    0.57583   1.00
H2       0.29914    0.05586    0.29884   1.00
H2       0.28741    0.01643    0.33429   1.00
H2       0.26212    0.01816    0.28626   1.00
H2       0.46565    0.32367    0.48180   1.00
H2       0.50734    0.28911    0.47771   1.00
H2       0.47785    0.30140    0.43379   1.00
H2       0.05288    0.21770    0.71111   1.00
H2       0.01686    0.25796    0.71664   1.00
H2       0.01666    0.22732    0.67181   1.00
H2       0.22223    0.44698    0.60693   1.00
H2       0.21884    0.49004    0.57402   1.00
H2       0.18507    0.44804    0.56734   1.00
C5       0.23348    0.87570    0.63218   1.00
H2       0.20819    0.86240    0.64745   1.00
H2       0.22094    0.89669    0.61090   1.00
C5       0.25939    0.89717    0.66194   1.00
C5       0.24271    0.93784    0.67123   1.00
H2       0.28947    0.90050    0.65015   1.00
O3       0.31761    0.77109    0.48000   1.00
C4       0.24972    0.74968    0.52100   1.00
C3c      0.23868    0.78282    0.54243   1.00
H1       0.22983    0.80901    0.52725   1.00
C3d      0.26062    0.71567    0.54135   1.00
C3       0.23938    0.78295    0.58354   1.00
O2       0.22368    0.81469    0.60248   1.00
C3       0.26207    0.71594    0.58227   1.00
H1       0.27194    0.68962    0.59657   1.00
C2       0.25140    0.74933    0.60439   1.00
C5       0.34561    0.74089    0.47879   1.00
H2       0.35467    0.73373    0.44838   1.00
H2       0.33418    0.71374    0.49266   1.00
C5       0.38139    0.75478    0.50129   1.00
H2       0.37214    0.76298    0.53137   1.00
H2       0.39277    0.78168    0.48698   1.00
C5       0.41301    0.72290    0.50262   1.00
H2       0.42219    0.71438    0.47268   1.00
H2       0.40212    0.69652    0.51811   1.00
C5       0.44923    0.73807    0.52445   1.00
C5       0.24298    0.65909    0.51105   1.00
C5       0.25334    0.84218    0.61070   1.00
H2       0.22269    0.67441    0.49088   1.00
H2       0.22622    0.64911    0.53712   1.00
H2       0.26671    0.85286    0.58300   1.00
H2       0.27732    0.82962    0.62895   1.00
H2       0.26066    0.88108    0.69030   1.00
H2       0.21698    0.61747    0.44247   1.00
H2       0.20336    0.59320    0.48763   1.00
C2       0.25243    0.74887    0.39605   1.00
C3       0.21747    0.74004    0.41597   1.00
O2       0.18711    0.72188    0.39674   1.00
C3       0.28550    0.75973    0.41826   1.00
H1       0.31241    0.76764    0.40385   1.00
C3a      0.21658    0.74124    0.45713   1.00
H1       0.19025    0.73224    0.47202   1.00
C3b      0.28488    0.75968    0.45922   1.00
C4       0.25028    0.75032    0.47900   1.00
O3       0.27456    0.68328    0.52167   1.00
C5       0.15788    0.74926    0.38720   1.00
H2       0.14601    0.76367    0.41391   1.00
C5       0.12529    0.72694    0.36674   1.00
H2       0.16948    0.77220    0.36726   1.00
H2       0.10724    0.71210    0.38932   1.00
H2       0.13918    0.70346    0.34907   1.00
C5       0.09967    0.75320    0.34082   1.00
H2       0.08856    0.77819    0.35824   1.00
C5       0.06466    0.73023    0.32453   1.00
H2       0.11631    0.76439    0.31507   1.00
C5       0.25974    0.62357    0.49017   1.00
H2       0.27450    0.60471    0.51215   1.00
H2       0.28268    0.63378    0.46952   1.00
C5       0.22814    0.60059    0.46800   1.00
C5       0.24533    0.56219    0.45225   1.00
H2       0.21762    0.93485    0.69286   1.00
C5       0.27494    0.96351    0.68912   1.00
H2       0.23159    0.95191    0.64323   1.00
C5       0.47681    0.70375    0.53337   1.00
H2       0.46505    0.76037    0.50551   1.00
H2       0.43981    0.75241    0.55293   1.00
C5       0.03590    0.75866    0.30497   1.00
H2       0.07537    0.70813    0.30211   1.00
H2       0.04934    0.71429    0.34937   1.00
H2       0.27365    0.56857    0.43602   1.00
H2       0.25149    0.54158    0.47761   1.00
C5       0.21596    0.54304    0.42417   1.00
H2       0.29914    0.94414    0.70116   1.00
H2       0.28741    0.98357    0.66571   1.00
H2       0.26212    0.98184    0.71374   1.00
H2       0.46565    0.67633    0.51820   1.00
H2       0.50734    0.71089    0.52229   1.00
H2       0.47785    0.69860    0.56621   1.00
H2       0.05288    0.78230    0.28889   1.00
H2       0.01686    0.74204    0.28336   1.00
H2       0.01666    0.77268    0.32819   1.00
H2       0.22223    0.55302    0.39307   1.00
H2       0.21884    0.50996    0.42598   1.00
H2       0.18507    0.55196    0.43266   1.00
C5       0.37570    1.13218    0.23348   1.00
H2       0.36240    1.14745    0.20819   1.00
H2       0.39669    1.11090    0.22094   1.00
C5       0.39717    1.16194    0.25939   1.00
C5       0.43784    1.17123    0.24271   1.00
H2       0.40050    1.15015    0.28947   1.00
O3       0.27109    0.98000    0.31761   1.00
C4       0.24968    1.02100    0.24972   1.00
C3c      0.28282    1.04243    0.23868   1.00
H1       0.30901    1.02725    0.22983   1.00
C3d      0.21567    1.04135    0.26062   1.00
C3       0.28295    1.08354    0.23938   1.00
O2       0.31469    1.10248    0.22368   1.00
C3       0.21594    1.08227    0.26207   1.00
H1       0.18962    1.09657    0.27194   1.00
C2       0.24933    1.10439    0.25140   1.00
C5       0.24089    0.97879    0.34561   1.00
H2       0.23373    0.94838    0.35467   1.00
H2       0.21374    0.99266    0.33418   1.00
C5       0.25478    1.00129    0.38139   1.00
H2       0.26298    1.03137    0.37214   1.00
H2       0.28168    0.98698    0.39277   1.00
C5       0.22290    1.00262    0.41301   1.00
H2       0.21438    0.97268    0.42219   1.00
H2       0.19652    1.01811    0.40212   1.00
C5       0.23807    1.02445    0.44923   1.00
C5       0.15909    1.01105    0.24298   1.00
C5       0.34218    1.11070    0.25334   1.00
H2       0.17441    0.99088    0.22269   1.00
H2       0.14911    1.03712    0.22622   1.00
H2       0.35286    1.08300    0.26671   1.00
H2       0.32962    1.12895    0.27732   1.00
H2       0.38108    1.19030    0.26066   1.00
H2       0.11747    0.94247    0.21698   1.00
H2       0.09320    0.98763    0.20336   1.00
C2       0.24887    0.89605    0.25243   1.00
C3       0.24004    0.91597    0.21747   1.00
O2       0.22188    0.89674    0.18711   1.00
C3       0.25973    0.91826    0.28550   1.00
H1       0.26764    0.90385    0.31241   1.00
C3a      0.24124    0.95713    0.21658   1.00
H1       0.23224    0.97202    0.19025   1.00
C3b      0.25968    0.95922    0.28488   1.00
C4       0.25032    0.97900    0.25028   1.00
O3       0.18328    1.02167    0.27456   1.00
C5       0.24926    0.88720    0.15788   1.00
H2       0.26367    0.91391    0.14601   1.00
C5       0.22694    0.86674    0.12529   1.00
H2       0.27220    0.86726    0.16948   1.00
H2       0.21210    0.88932    0.10724   1.00
H2       0.20346    0.84907    0.13918   1.00
C5       0.25320    0.84082    0.09967   1.00
H2       0.27819    0.85824    0.08856   1.00
C5       0.23023    0.82453    0.06466   1.00
H2       0.26439    0.81507    0.11631   1.00
C5       0.12357    0.99017    0.25974   1.00
H2       0.10471    1.01215    0.27450   1.00
H2       0.13378    0.96952    0.28268   1.00
C5       0.10059    0.96800    0.22814   1.00
C5       0.06219    0.95225    0.24533   1.00
H2       0.43485    1.19286    0.21762   1.00
C5       0.46351    1.18912    0.27494   1.00
H2       0.45191    1.14323    0.23159   1.00
C5       0.20375    1.03337    0.47681   1.00
H2       0.26037    1.00551    0.46505   1.00
H2       0.25241    1.05293    0.43981   1.00
C5       0.25866    0.80497    0.03590   1.00
H2       0.20813    0.80211    0.07537   1.00
H2       0.21429    0.84937    0.04934   1.00
H2       0.06857    0.93602    0.27365   1.00
H2       0.04158    0.97761    0.25149   1.00
C5       0.04304    0.92417    0.21596   1.00
H2       0.44414    1.20116    0.29914   1.00
H2       0.48357    1.16571    0.28741   1.00
H2       0.48184    1.21374    0.26212   1.00
H2       0.17633    1.01820    0.46565   1.00
H2       0.21089    1.02229    0.50734   1.00
H2       0.19860    1.06621    0.47785   1.00
H2       0.28230    0.78889    0.05288   1.00
H2       0.24204    0.78336    0.01686   1.00
H2       0.27268    0.82819    0.01666   1.00
H2       0.05302    0.89307    0.22223   1.00
H2       0.00996    0.92598    0.21884   1.00
H2       0.05196    0.93266    0.18507   1.00
C5       -0.13218   0.73348    0.12430   1.00
H2       -0.14745   0.70819    0.13760   1.00
H2       -0.11090   0.72094    0.10331   1.00
C5       -0.16194   0.75939    0.10283   1.00
C5       -0.17123   0.74271    0.06216   1.00
H2       -0.15015   0.78947    0.09950   1.00
O3       0.02000    0.81761    0.22891   1.00
C4       -0.02100   0.74972    0.25032   1.00
C3c      -0.04243   0.73868    0.21718   1.00
H1       -0.02725   0.72983    0.19099   1.00
C3d      -0.04135   0.76062    0.28433   1.00
C3       -0.08354   0.73938    0.21705   1.00
O2       -0.10248   0.72368    0.18531   1.00
C3       -0.08227   0.76207    0.28406   1.00
H1       -0.09657   0.77194    0.31038   1.00
C2       -0.10439   0.75140    0.25067   1.00
C5       0.02121    0.84561    0.25911   1.00
H2       0.05162    0.85467    0.26627   1.00
H2       0.00734    0.83418    0.28626   1.00
C5       -0.00129   0.88139    0.24522   1.00
H2       -0.03137   0.87214    0.23702   1.00
H2       0.01302    0.89277    0.21832   1.00
C5       -0.00262   0.91301    0.27710   1.00
H2       0.02732    0.92219    0.28562   1.00
H2       -0.01811   0.90212    0.30348   1.00
C5       -0.02445   0.94923    0.26193   1.00
C5       -0.01105   0.74298    0.34091   1.00
C5       -0.11070   0.75334    0.15782   1.00
H2       0.00912    0.72269    0.32559   1.00
H2       -0.03712   0.72622    0.35089   1.00
H2       -0.08300   0.76671    0.14714   1.00
H2       -0.12895   0.77732    0.17038   1.00
H2       -0.19030   0.76066    0.11892   1.00
H2       0.05753    0.71698    0.38253   1.00
H2       0.01237    0.70336    0.40680   1.00
C2       0.10395    0.75243    0.25113   1.00
C3       0.08403    0.71747    0.25996   1.00
O2       0.10326    0.68711    0.27812   1.00
C3       0.08174    0.78550    0.24027   1.00
H1       0.09615    0.81241    0.23236   1.00
C3a      0.04287    0.71658    0.25876   1.00
H1       0.02798    0.69025    0.26776   1.00
C3b      0.04078    0.78488    0.24032   1.00
C4       0.02100    0.75028    0.24968   1.00
O3       -0.02167   0.77456    0.31672   1.00
C5       0.11280    0.65788    0.25074   1.00
H2       0.08609    0.64601    0.23633   1.00
C5       0.13326    0.62529    0.27306   1.00
H2       0.13274    0.66948    0.22780   1.00
H2       0.11068    0.60724    0.28790   1.00
H2       0.15093    0.63918    0.29654   1.00
C5       0.15918    0.59967    0.24680   1.00
H2       0.14176    0.58856    0.22181   1.00
C5       0.17547    0.56466    0.26977   1.00
H2       0.18493    0.61631    0.23561   1.00
C5       0.00983    0.75974    0.37643   1.00
H2       -0.01215   0.77450    0.39529   1.00
H2       0.03048    0.78268    0.36622   1.00
C5       0.03200    0.72814    0.39941   1.00
C5       0.04775    0.74533    0.43781   1.00
H2       -0.19286   0.71762    0.06515   1.00
C5       -0.18912   0.77494    0.03649   1.00
H2       -0.14323   0.73159    0.04809   1.00
C5       -0.03337   0.97681    0.29625   1.00
H2       -0.00551   0.96505    0.23963   1.00
H2       -0.05293   0.93981    0.24759   1.00
C5       0.19503    0.53590    0.24134   1.00
H2       0.19789    0.57537    0.29187   1.00
H2       0.15063    0.54934    0.28571   1.00
H2       0.06398    0.77365    0.43143   1.00
H2       0.02239    0.75149    0.45842   1.00
C5       0.07583    0.71596    0.45696   1.00
H2       -0.20116   0.79914    0.05586   1.00
H2       -0.16571   0.78741    0.01643   1.00
H2       -0.21374   0.76212    0.01816   1.00
H2       -0.01820   0.96565    0.32367   1.00
H2       -0.02229   1.00734    0.28911   1.00
H2       -0.06621   0.97785    0.30140   1.00
H2       0.21111    0.55288    0.21770   1.00
H2       0.21664    0.51686    0.25796   1.00
H2       0.17181    0.51666    0.22732   1.00
H2       0.10693    0.72223    0.44698   1.00
H2       0.07402    0.71884    0.49004   1.00
H2       0.06734    0.68507    0.44804   1.00
C5       0.63218    0.73348    0.37570   1.00
H2       0.64745    0.70819    0.36240   1.00
H2       0.61090    0.72094    0.39669   1.00
C5       0.66194    0.75939    0.39717   1.00
C5       0.67123    0.74271    0.43784   1.00
H2       0.65015    0.78947    0.40050   1.00
O3       0.48000    0.81761    0.27109   1.00
C4       0.52100    0.74972    0.24968   1.00
C3c      0.54243    0.73868    0.28282   1.00
H1       0.52725    0.72983    0.30901   1.00
C3d      0.54135    0.76062    0.21567   1.00
C3       0.58354    0.73938    0.28295   1.00
O2       0.60248    0.72368    0.31469   1.00
C3       0.58227    0.76207    0.21594   1.00
H1       0.59657    0.77194    0.18962   1.00
C2       0.60439    0.75140    0.24933   1.00
C5       0.47879    0.84561    0.24089   1.00
H2       0.44838    0.85467    0.23373   1.00
H2       0.49266    0.83418    0.21374   1.00
C5       0.50129    0.88139    0.25478   1.00
H2       0.53137    0.87214    0.26298   1.00
H2       0.48698    0.89277    0.28168   1.00
C5       0.50262    0.91301    0.22290   1.00
H2       0.47268    0.92219    0.21438   1.00
H2       0.51811    0.90212    0.19652   1.00
C5       0.52445    0.94923    0.23807   1.00
C5       0.51105    0.74298    0.15909   1.00
C5       0.61070    0.75334    0.34218   1.00
H2       0.49088    0.72269    0.17441   1.00
H2       0.53712    0.72622    0.14911   1.00
H2       0.58300    0.76671    0.35286   1.00
H2       0.62895    0.77732    0.32962   1.00
H2       0.69030    0.76066    0.38108   1.00
H2       0.44247    0.71698    0.11747   1.00
H2       0.48763    0.70336    0.09320   1.00
C2       0.39605    0.75243    0.24887   1.00
C3       0.41597    0.71747    0.24004   1.00
O2       0.39674    0.68711    0.22188   1.00
C3       0.41826    0.78550    0.25973   1.00
H1       0.40385    0.81241    0.26764   1.00
C3a      0.45713    0.71658    0.24124   1.00
H1       0.47202    0.69025    0.23224   1.00
C3b      0.45922    0.78488    0.25968   1.00
C4       0.47900    0.75028    0.25032   1.00
O3       0.52167    0.77456    0.18328   1.00
C5       0.38720    0.65788    0.24926   1.00
H2       0.41391    0.64601    0.26367   1.00
C5       0.36674    0.62529    0.22694   1.00
H2       0.36726    0.66948    0.27220   1.00
H2       0.38932    0.60724    0.21210   1.00
H2       0.34907    0.63918    0.20346   1.00
C5       0.34082    0.59967    0.25320   1.00
H2       0.35824    0.58856    0.27819   1.00
C5       0.32453    0.56466    0.23023   1.00
H2       0.31507    0.61631    0.26439   1.00
C5       0.49017    0.75974    0.12357   1.00
H2       0.51215    0.77450    0.10471   1.00
H2       0.46952    0.78268    0.13378   1.00
C5       0.46800    0.72814    0.10059   1.00
C5       0.45225    0.74533    0.06219   1.00
H2       0.69286    0.71762    0.43485   1.00
C5       0.68912    0.77494    0.46351   1.00
H2       0.64323    0.73159    0.45191   1.00
C5       0.53337    0.97681    0.20375   1.00
H2       0.50551    0.96505    0.26037   1.00
H2       0.55293    0.93981    0.25241   1.00
C5       0.30497    0.53590    0.25866   1.00
H2       0.30211    0.57537    0.20813   1.00
H2       0.34937    0.54934    0.21429   1.00
H2       0.43602    0.77365    0.06857   1.00
H2       0.47761    0.75149    0.04158   1.00
C5       0.42417    0.71596    0.04304   1.00
H2       0.70116    0.79914    0.44414   1.00
H2       0.66571    0.78741    0.48357   1.00
H2       0.71374    0.76212    0.48184   1.00
H2       0.51820    0.96565    0.17633   1.00
H2       0.52229    1.00734    0.21089   1.00
H2       0.56621    0.97785    0.19860   1.00
H2       0.28889    0.55288    0.28230   1.00
H2       0.28336    0.51686    0.24204   1.00
H2       0.32819    0.51666    0.27268   1.00
H2       0.39307    0.72223    0.05302   1.00
H2       0.42598    0.71884    0.00996   1.00
H2       0.43266    0.68507    0.05196   1.00
C5       0.12430    0.36782    0.23348   1.00
H2       0.13760    0.35255    0.20819   1.00
H2       0.10331    0.38910    0.22094   1.00
C5       0.10283    0.33806    0.25939   1.00
C5       0.06216    0.32877    0.24271   1.00
H2       0.09950    0.34985    0.28947   1.00
O3       0.22891    0.52000    0.31761   1.00
C4       0.25032    0.47900    0.24972   1.00
C3c      0.21718    0.45757    0.23868   1.00
H1       0.19099    0.47275    0.22983   1.00
C3d      0.28433    0.45865    0.26062   1.00
C3       0.21705    0.41646    0.23938   1.00
O2       0.18531    0.39752    0.22368   1.00
C3       0.28406    0.41773    0.26207   1.00
H1       0.31038    0.40343    0.27194   1.00
C2       0.25067    0.39561    0.25140   1.00
C5       0.25911    0.52121    0.34561   1.00
H2       0.26627    0.55162    0.35467   1.00
H2       0.28626    0.50734    0.33418   1.00
C5       0.24522    0.49871    0.38139   1.00
H2       0.23702    0.46863    0.37214   1.00
H2       0.21832    0.51302    0.39277   1.00
C5       0.27710    0.49738    0.41301   1.00
H2       0.28562    0.52732    0.42219   1.00
H2       0.30348    0.48189    0.40212   1.00
C5       0.26193    0.47555    0.44923   1.00
C5       0.34091    0.48895    0.24298   1.00
C5       0.15782    0.38930    0.25334   1.00
H2       0.32559    0.50912    0.22269   1.00
H2       0.35089    0.46288    0.22622   1.00
H2       0.14714    0.41700    0.26671   1.00
H2       0.17038    0.37105    0.27732   1.00
H2       0.11892    0.30970    0.26066   1.00
H2       0.38253    0.55753    0.21698   1.00
H2       0.40680    0.51237    0.20336   1.00
C2       0.25113    0.60395    0.25243   1.00
C3       0.25996    0.58403    0.21747   1.00
O2       0.27812    0.60326    0.18711   1.00
C3       0.24027    0.58174    0.28550   1.00
H1       0.23236    0.59615    0.31241   1.00
C3a      0.25876    0.54287    0.21658   1.00
H1       0.26776    0.52798    0.19025   1.00
C3b      0.24032    0.54078    0.28488   1.00
C4       0.24968    0.52100    0.25028   1.00
O3       0.31672    0.47833    0.27456   1.00
C5       0.25074    0.61280    0.15788   1.00
H2       0.23633    0.58609    0.14601   1.00
C5       0.27306    0.63326    0.12529   1.00
H2       0.22780    0.63274    0.16948   1.00
H2       0.28790    0.61068    0.10724   1.00
H2       0.29654    0.65093    0.13918   1.00
C5       0.24680    0.65918    0.09967   1.00
H2       0.22181    0.64176    0.08856   1.00
C5       0.26977    0.67547    0.06466   1.00
H2       0.23561    0.68493    0.11631   1.00
C5       0.37643    0.50983    0.25974   1.00
H2       0.39529    0.48785    0.27450   1.00
H2       0.36622    0.53048    0.28268   1.00
C5       0.39941    0.53200    0.22814   1.00
C5       0.43781    0.54775    0.24533   1.00
H2       0.06515    0.30714    0.21762   1.00
C5       0.03649    0.31088    0.27494   1.00
H2       0.04809    0.35677    0.23159   1.00
C5       0.29625    0.46663    0.47681   1.00
H2       0.23963    0.49449    0.46505   1.00
H2       0.24759    0.44707    0.43981   1.00
C5       0.24134    0.69503    0.03590   1.00
H2       0.29187    0.69789    0.07537   1.00
H2       0.28571    0.65063    0.04934   1.00
H2       0.43143    0.56398    0.27365   1.00
H2       0.45842    0.52239    0.25149   1.00
C5       0.45696    0.57583    0.21596   1.00
H2       0.05586    0.29884    0.29914   1.00
H2       0.01643    0.33429    0.28741   1.00
H2       0.01816    0.28626    0.26212   1.00
H2       0.32367    0.48180    0.46565   1.00
H2       0.28911    0.47771    0.50734   1.00
H2       0.30140    0.43379    0.47785   1.00
H2       0.21770    0.71111    0.05288   1.00
H2       0.25796    0.71664    0.01686   1.00
H2       0.22732    0.67181    0.01666   1.00
H2       0.44698    0.60693    0.22223   1.00
H2       0.49004    0.57402    0.21884   1.00
H2       0.44804    0.56734    0.18507   1.00
C5       0.23348    0.62430    -0.13218   1.00
H2       0.20819    0.63760    -0.14745   1.00
H2       0.22094    0.60331    -0.11090   1.00
C5       0.25939    0.60283    -0.16194   1.00
C5       0.24271    0.56216    -0.17123   1.00
H2       0.28947    0.59950    -0.15015   1.00
O3       0.31761    0.72891    0.02000   1.00
C4       0.24972    0.75032    -0.02100   1.00
C3c      0.23868    0.71718    -0.04243   1.00
H1       0.22983    0.69099    -0.02725   1.00
C3d      0.26062    0.78433    -0.04135   1.00
C3       0.23938    0.71705    -0.08354   1.00
O2       0.22368    0.68531    -0.10248   1.00
C3       0.26207    0.78406    -0.08227   1.00
H1       0.27194    0.81038    -0.09657   1.00
C2       0.25140    0.75067    -0.10439   1.00
C5       0.34561    0.75911    0.02121   1.00
H2       0.35467    0.76627    0.05162   1.00
H2       0.33418    0.78626    0.00734   1.00
C5       0.38139    0.74522    -0.00129   1.00
H2       0.37214    0.73702    -0.03137   1.00
H2       0.39277    0.71832    0.01302   1.00
C5       0.41301    0.77710    -0.00262   1.00
H2       0.42219    0.78562    0.02732   1.00
H2       0.40212    0.80348    -0.01811   1.00
C5       0.44923    0.76193    -0.02445   1.00
C5       0.24298    0.84091    -0.01105   1.00
C5       0.25334    0.65782    -0.11070   1.00
H2       0.22269    0.82559    0.00912   1.00
H2       0.22622    0.85089    -0.03712   1.00
H2       0.26671    0.64714    -0.08300   1.00
H2       0.27732    0.67038    -0.12895   1.00
H2       0.26066    0.61892    -0.19030   1.00
H2       0.21698    0.88253    0.05753   1.00
H2       0.20336    0.90680    0.01237   1.00
C2       0.25243    0.75113    0.10395   1.00
C3       0.21747    0.75996    0.08403   1.00
O2       0.18711    0.77812    0.10326   1.00
C3       0.28550    0.74027    0.08174   1.00
H1       0.31241    0.73236    0.09615   1.00
C3a      0.21658    0.75876    0.04287   1.00
H1       0.19025    0.76776    0.02798   1.00
C3b      0.28488    0.74032    0.04078   1.00
C4       0.25028    0.74968    0.02100   1.00
O3       0.27456    0.81672    -0.02167   1.00
C5       0.15788    0.75074    0.11280   1.00
H2       0.14601    0.73633    0.08609   1.00
C5       0.12529    0.77306    0.13326   1.00
H2       0.16948    0.72780    0.13274   1.00
H2       0.10724    0.78790    0.11068   1.00
H2       0.13918    0.79654    0.15093   1.00
C5       0.09967    0.74680    0.15918   1.00
H2       0.08856    0.72181    0.14176   1.00
C5       0.06466    0.76977    0.17547   1.00
H2       0.11631    0.73561    0.18493   1.00
C5       0.25974    0.87643    0.00983   1.00
H2       0.27450    0.89529    -0.01215   1.00
H2       0.28268    0.86622    0.03048   1.00
C5       0.22814    0.89941    0.03200   1.00
C5       0.24533    0.93781    0.04775   1.00
H2       0.21762    0.56515    -0.19286   1.00
C5       0.27494    0.53649    -0.18912   1.00
H2       0.23159    0.54809    -0.14323   1.00
C5       0.47681    0.79625    -0.03337   1.00
H2       0.46505    0.73963    -0.00551   1.00
H2       0.43981    0.74759    -0.05293   1.00
C5       0.03590    0.74134    0.19503   1.00
H2       0.07537    0.79187    0.19789   1.00
H2       0.04934    0.78571    0.15063   1.00
H2       0.27365    0.93143    0.06398   1.00
H2       0.25149    0.95842    0.02239   1.00
C5       0.21596    0.95696    0.07583   1.00
H2       0.29914    0.55586    -0.20116   1.00
H2       0.28741    0.51643    -0.16571   1.00
H2       0.26212    0.51816    -0.21374   1.00
H2       0.46565    0.82367    -0.01820   1.00
H2       0.50734    0.78911    -0.02229   1.00
H2       0.47785    0.80140    -0.06621   1.00
H2       0.05288    0.71770    0.21111   1.00
H2       0.01686    0.75796    0.21664   1.00
H2       0.01666    0.72732    0.17181   1.00
H2       0.22223    0.94698    0.10693   1.00
H2       0.21884    0.99004    0.07402   1.00
H2       0.18507    0.94804    0.06734   1.00
C5       0.73348    0.37570    0.63218   1.00
H2       0.70819    0.36240    0.64745   1.00
H2       0.72094    0.39669    0.61090   1.00
C5       0.75939    0.39717    0.66194   1.00
C5       0.74271    0.43784    0.67123   1.00
H2       0.78947    0.40050    0.65015   1.00
O3       0.81761    0.27109    0.48000   1.00
C4       0.74972    0.24968    0.52100   1.00
C3c      0.73868    0.28282    0.54243   1.00
H1       0.72983    0.30901    0.52725   1.00
C3d      0.76062    0.21567    0.54135   1.00
C3       0.73938    0.28295    0.58354   1.00
O2       0.72368    0.31469    0.60248   1.00
C3       0.76207    0.21594    0.58227   1.00
H1       0.77194    0.18962    0.59657   1.00
C2       0.75140    0.24933    0.60439   1.00
C5       0.84561    0.24089    0.47879   1.00
H2       0.85467    0.23373    0.44838   1.00
H2       0.83418    0.21374    0.49266   1.00
C5       0.88139    0.25478    0.50129   1.00
H2       0.87214    0.26298    0.53137   1.00
H2       0.89277    0.28168    0.48698   1.00
C5       0.91301    0.22290    0.50262   1.00
H2       0.92219    0.21438    0.47268   1.00
H2       0.90212    0.19652    0.51811   1.00
C5       0.94923    0.23807    0.52445   1.00
C5       0.74298    0.15909    0.51105   1.00
C5       0.75334    0.34218    0.61070   1.00
H2       0.72269    0.17441    0.49088   1.00
H2       0.72622    0.14911    0.53712   1.00
H2       0.76671    0.35286    0.58300   1.00
H2       0.77732    0.32962    0.62895   1.00
H2       0.76066    0.38108    0.69030   1.00
H2       0.71698    0.11747    0.44247   1.00
H2       0.70336    0.09320    0.48763   1.00
C2       0.75243    0.24887    0.39605   1.00
C3       0.71747    0.24004    0.41597   1.00
O2       0.68711    0.22188    0.39674   1.00
C3       0.78550    0.25973    0.41826   1.00
H1       0.81241    0.26764    0.40385   1.00
C3a      0.71658    0.24124    0.45713   1.00
H1       0.69025    0.23224    0.47202   1.00
C3b      0.78488    0.25968    0.45922   1.00
C4       0.75028    0.25032    0.47900   1.00
O3       0.77456    0.18328    0.52167   1.00
C5       0.65788    0.24926    0.38720   1.00
H2       0.64601    0.26367    0.41391   1.00
C5       0.62529    0.22694    0.36674   1.00
H2       0.66948    0.27220    0.36726   1.00
H2       0.60724    0.21210    0.38932   1.00
H2       0.63918    0.20346    0.34907   1.00
C5       0.59967    0.25320    0.34082   1.00
H2       0.58856    0.27819    0.35824   1.00
C5       0.56466    0.23023    0.32453   1.00
H2       0.61631    0.26439    0.31507   1.00
C5       0.75974    0.12357    0.49017   1.00
H2       0.77450    0.10471    0.51215   1.00
H2       0.78268    0.13378    0.46952   1.00
C5       0.72814    0.10059    0.46800   1.00
C5       0.74533    0.06219    0.45225   1.00
H2       0.71762    0.43485    0.69286   1.00
C5       0.77494    0.46351    0.68912   1.00
H2       0.73159    0.45191    0.64323   1.00
C5       0.97681    0.20375    0.53337   1.00
H2       0.96505    0.26037    0.50551   1.00
H2       0.93981    0.25241    0.55293   1.00
C5       0.53590    0.25866    0.30497   1.00
H2       0.57537    0.20813    0.30211   1.00
H2       0.54934    0.21429    0.34937   1.00
H2       0.77365    0.06857    0.43602   1.00
H2       0.75149    0.04158    0.47761   1.00
C5       0.71596    0.04304    0.42417   1.00
H2       0.79914    0.44414    0.70116   1.00
H2       0.78741    0.48357    0.66571   1.00
H2       0.76212    0.48184    0.71374   1.00
H2       0.96565    0.17633    0.51820   1.00
H2       1.00734    0.21089    0.52229   1.00
H2       0.97785    0.19860    0.56621   1.00
H2       0.55288    0.28230    0.28889   1.00
H2       0.51686    0.24204    0.28336   1.00
H2       0.51666    0.27268    0.32819   1.00
H2       0.72223    0.05302    0.39307   1.00
H2       0.71884    0.00996    0.42598   1.00
H2       0.68507    0.05196    0.43266   1.00
C5       0.87570    0.63218    0.23348   1.00
H2       0.86240    0.64745    0.20819   1.00
H2       0.89669    0.61090    0.22094   1.00
C5       0.89717    0.66194    0.25939   1.00
C5       0.93784    0.67123    0.24271   1.00
H2       0.90050    0.65015    0.28947   1.00
O3       0.77109    0.48000    0.31761   1.00
C4       0.74968    0.52100    0.24972   1.00
C3c      0.78282    0.54243    0.23868   1.00
H1       0.80901    0.52725    0.22983   1.00
C3d      0.71567    0.54135    0.26062   1.00
C3       0.78295    0.58354    0.23938   1.00
O2       0.81469    0.60248    0.22368   1.00
C3       0.71594    0.58227    0.26207   1.00
H1       0.68962    0.59657    0.27194   1.00
C2       0.74933    0.60439    0.25140   1.00
C5       0.74089    0.47879    0.34561   1.00
H2       0.73373    0.44838    0.35467   1.00
H2       0.71374    0.49266    0.33418   1.00
C5       0.75478    0.50129    0.38139   1.00
H2       0.76298    0.53137    0.37214   1.00
H2       0.78168    0.48698    0.39277   1.00
C5       0.72290    0.50262    0.41301   1.00
H2       0.71438    0.47268    0.42219   1.00
H2       0.69652    0.51811    0.40212   1.00
C5       0.73807    0.52445    0.44923   1.00
C5       0.65909    0.51105    0.24298   1.00
C5       0.84218    0.61070    0.25334   1.00
H2       0.67441    0.49088    0.22269   1.00
H2       0.64911    0.53712    0.22622   1.00
H2       0.85286    0.58300    0.26671   1.00
H2       0.82962    0.62895    0.27732   1.00
H2       0.88108    0.69030    0.26066   1.00
H2       0.61747    0.44247    0.21698   1.00
H2       0.59320    0.48763    0.20336   1.00
C2       0.74887    0.39605    0.25243   1.00
C3       0.74004    0.41597    0.21747   1.00
O2       0.72188    0.39674    0.18711   1.00
C3       0.75973    0.41826    0.28550   1.00
H1       0.76764    0.40385    0.31241   1.00
C3a      0.74124    0.45713    0.21658   1.00
H1       0.73224    0.47202    0.19025   1.00
C3b      0.75968    0.45922    0.28488   1.00
C4       0.75032    0.47900    0.25028   1.00
O3       0.68328    0.52167    0.27456   1.00
C5       0.74926    0.38720    0.15788   1.00
H2       0.76367    0.41391    0.14601   1.00
C5       0.72694    0.36674    0.12529   1.00
H2       0.77220    0.36726    0.16948   1.00
H2       0.71210    0.38932    0.10724   1.00
H2       0.70346    0.34907    0.13918   1.00
C5       0.75320    0.34082    0.09967   1.00
H2       0.77819    0.35824    0.08856   1.00
C5       0.73023    0.32453    0.06466   1.00
H2       0.76439    0.31507    0.11631   1.00
C5       0.62357    0.49017    0.25974   1.00
H2       0.60471    0.51215    0.27450   1.00
H2       0.63378    0.46952    0.28268   1.00
C5       0.60059    0.46800    0.22814   1.00
C5       0.56219    0.45225    0.24533   1.00
H2       0.93485    0.69286    0.21762   1.00
C5       0.96351    0.68912    0.27494   1.00
H2       0.95191    0.64323    0.23159   1.00
C5       0.70375    0.53337    0.47681   1.00
H2       0.76037    0.50551    0.46505   1.00
H2       0.75241    0.55293    0.43981   1.00
C5       0.75866    0.30497    0.03590   1.00
H2       0.70813    0.30211    0.07537   1.00
H2       0.71429    0.34937    0.04934   1.00
H2       0.56857    0.43602    0.27365   1.00
H2       0.54158    0.47761    0.25149   1.00
C5       0.54304    0.42417    0.21596   1.00
H2       0.94414    0.70116    0.29914   1.00
H2       0.98357    0.66571    0.28741   1.00
H2       0.98184    0.71374    0.26212   1.00
H2       0.67633    0.51820    0.46565   1.00
H2       0.71089    0.52229    0.50734   1.00
H2       0.69860    0.56621    0.47785   1.00
H2       0.78230    0.28889    0.05288   1.00
H2       0.74204    0.28336    0.01686   1.00
H2       0.77268    0.32819    0.01666   1.00
H2       0.55302    0.39307    0.22223   1.00
H2       0.50996    0.42598    0.21884   1.00
H2       0.55196    0.43266    0.18507   1.00
C5       0.36782    0.23348    0.12430   1.00
H2       0.35255    0.20819    0.13760   1.00
H2       0.38910    0.22094    0.10331   1.00
C5       0.33806    0.25939    0.10283   1.00
C5       0.32877    0.24271    0.06216   1.00
H2       0.34985    0.28947    0.09950   1.00
O3       0.52000    0.31761    0.22891   1.00
C4       0.47900    0.24972    0.25032   1.00
C3c      0.45757    0.23868    0.21718   1.00
H1       0.47275    0.22983    0.19099   1.00
C3d      0.45865    0.26062    0.28433   1.00
C3       0.41646    0.23938    0.21705   1.00
O2       0.39752    0.22368    0.18531   1.00
C3       0.41773    0.26207    0.28406   1.00
H1       0.40343    0.27194    0.31038   1.00
C2       0.39561    0.25140    0.25067   1.00
C5       0.52121    0.34561    0.25911   1.00
H2       0.55162    0.35467    0.26627   1.00
H2       0.50734    0.33418    0.28626   1.00
C5       0.49871    0.38139    0.24522   1.00
H2       0.46863    0.37214    0.23702   1.00
H2       0.51302    0.39277    0.21832   1.00
C5       0.49738    0.41301    0.27710   1.00
H2       0.52732    0.42219    0.28562   1.00
H2       0.48189    0.40212    0.30348   1.00
C5       0.47555    0.44923    0.26193   1.00
C5       0.48895    0.24298    0.34091   1.00
C5       0.38930    0.25334    0.15782   1.00
H2       0.50912    0.22269    0.32559   1.00
H2       0.46288    0.22622    0.35089   1.00
H2       0.41700    0.26671    0.14714   1.00
H2       0.37105    0.27732    0.17038   1.00
H2       0.30970    0.26066    0.11892   1.00
H2       0.55753    0.21698    0.38253   1.00
H2       0.51237    0.20336    0.40680   1.00
C2       0.60395    0.25243    0.25113   1.00
C3       0.58403    0.21747    0.25996   1.00
O2       0.60326    0.18711    0.27812   1.00
C3       0.58174    0.28550    0.24027   1.00
H1       0.59615    0.31241    0.23236   1.00
C3a      0.54287    0.21658    0.25876   1.00
H1       0.52798    0.19025    0.26776   1.00
C3b      0.54078    0.28488    0.24032   1.00
C4       0.52100    0.25028    0.24968   1.00
O3       0.47833    0.27456    0.31672   1.00
C5       0.61280    0.15788    0.25074   1.00
H2       0.58609    0.14601    0.23633   1.00
C5       0.63326    0.12529    0.27306   1.00
H2       0.63274    0.16948    0.22780   1.00
H2       0.61068    0.10724    0.28790   1.00
H2       0.65093    0.13918    0.29654   1.00
C5       0.65918    0.09967    0.24680   1.00
H2       0.64176    0.08856    0.22181   1.00
C5       0.67547    0.06466    0.26977   1.00
H2       0.68493    0.11631    0.23561   1.00
C5       0.50983    0.25974    0.37643   1.00
H2       0.48785    0.27450    0.39529   1.00
H2       0.53048    0.28268    0.36622   1.00
C5       0.53200    0.22814    0.39941   1.00
C5       0.54775    0.24533    0.43781   1.00
H2       0.30714    0.21762    0.06515   1.00
C5       0.31088    0.27494    0.03649   1.00
H2       0.35677    0.23159    0.04809   1.00
C5       0.46663    0.47681    0.29625   1.00
H2       0.49449    0.46505    0.23963   1.00
H2       0.44707    0.43981    0.24759   1.00
C5       0.69503    0.03590    0.24134   1.00
H2       0.69789    0.07537    0.29187   1.00
H2       0.65063    0.04934    0.28571   1.00
H2       0.56398    0.27365    0.43143   1.00
H2       0.52239    0.25149    0.45842   1.00
C5       0.57583    0.21596    0.45696   1.00
H2       0.29884    0.29914    0.05586   1.00
H2       0.33429    0.28741    0.01643   1.00
H2       0.28626    0.26212    0.01816   1.00
H2       0.48180    0.46565    0.32367   1.00
H2       0.47771    0.50734    0.28911   1.00
H2       0.43379    0.47785    0.30140   1.00
H2       0.71111    0.05288    0.21770   1.00
H2       0.71664    0.01686    0.25796   1.00
H2       0.67181    0.01666    0.22732   1.00
H2       0.60693    0.22223    0.44698   1.00
H2       0.57402    0.21884    0.49004   1.00
H2       0.56734    0.18507    0.44804   1.00
C5       1.13218    0.23348    0.37570   1.00
H2       1.14745    0.20819    0.36240   1.00
H2       1.11090    0.22094    0.39669   1.00
C5       1.16194    0.25939    0.39717   1.00
C5       1.17123    0.24271    0.43784   1.00
H2       1.15015    0.28947    0.40050   1.00
O3       0.98000    0.31761    0.27109   1.00
C4       1.02100    0.24972    0.24968   1.00
C3c      1.04243    0.23868    0.28282   1.00
H1       1.02725    0.22983    0.30901   1.00
C3d      1.04135    0.26062    0.21567   1.00
C3       1.08354    0.23938    0.28295   1.00
O2       1.10248    0.22368    0.31469   1.00
C3       1.08227    0.26207    0.21594   1.00
H1       1.09657    0.27194    0.18962   1.00
C2       1.10439    0.25140    0.24933   1.00
C5       0.97879    0.34561    0.24089   1.00
H2       0.94838    0.35467    0.23373   1.00
H2       0.99266    0.33418    0.21374   1.00
C5       1.00129    0.38139    0.25478   1.00
H2       1.03137    0.37214    0.26298   1.00
H2       0.98698    0.39277    0.28168   1.00
C5       1.00262    0.41301    0.22290   1.00
H2       0.97268    0.42219    0.21438   1.00
H2       1.01811    0.40212    0.19652   1.00
C5       1.02445    0.44923    0.23807   1.00
C5       1.01105    0.24298    0.15909   1.00
C5       1.11070    0.25334    0.34218   1.00
H2       0.99088    0.22269    0.17441   1.00
H2       1.03712    0.22622    0.14911   1.00
H2       1.08300    0.26671    0.35286   1.00
H2       1.12895    0.27732    0.32962   1.00
H2       1.19030    0.26066    0.38108   1.00
H2       0.94247    0.21698    0.11747   1.00
H2       0.98763    0.20336    0.09320   1.00
C2       0.89605    0.25243    0.24887   1.00
C3       0.91597    0.21747    0.24004   1.00
O2       0.89674    0.18711    0.22188   1.00
C3       0.91826    0.28550    0.25973   1.00
H1       0.90385    0.31241    0.26764   1.00
C3a      0.95713    0.21658    0.24124   1.00
H1       0.97202    0.19025    0.23224   1.00
C3b      0.95922    0.28488    0.25968   1.00
C4       0.97900    0.25028    0.25032   1.00
O3       1.02167    0.27456    0.18328   1.00
C5       0.88720    0.15788    0.24926   1.00
H2       0.91391    0.14601    0.26367   1.00
C5       0.86674    0.12529    0.22694   1.00
H2       0.86726    0.16948    0.27220   1.00
H2       0.88932    0.10724    0.21210   1.00
H2       0.84907    0.13918    0.20346   1.00
C5       0.84082    0.09967    0.25320   1.00
H2       0.85824    0.08856    0.27819   1.00
C5       0.82453    0.06466    0.23023   1.00
H2       0.81507    0.11631    0.26439   1.00
C5       0.99017    0.25974    0.12357   1.00
H2       1.01215    0.27450    0.10471   1.00
H2       0.96952    0.28268    0.13378   1.00
C5       0.96800    0.22814    0.10059   1.00
C5       0.95225    0.24533    0.06219   1.00
H2       1.19286    0.21762    0.43485   1.00
C5       1.18912    0.27494    0.46351   1.00
H2       1.14323    0.23159    0.45191   1.00
C5       1.03337    0.47681    0.20375   1.00
H2       1.00551    0.46505    0.26037   1.00
H2       1.05293    0.43981    0.25241   1.00
C5       0.80497    0.03590    0.25866   1.00
H2       0.80211    0.07537    0.20813   1.00
H2       0.84937    0.04934    0.21429   1.00
H2       0.93602    0.27365    0.06857   1.00
H2       0.97761    0.25149    0.04158   1.00
C5       0.92417    0.21596    0.04304   1.00
H2       1.20116    0.29914    0.44414   1.00
H2       1.16571    0.28741    0.48357   1.00
H2       1.21374    0.26212    0.48184   1.00
H2       1.01820    0.46565    0.17633   1.00
H2       1.02229    0.50734    0.21089   1.00
H2       1.06621    0.47785    0.19860   1.00
H2       0.78889    0.05288    0.28230   1.00
H2       0.78336    0.01686    0.24204   1.00
H2       0.82819    0.01666    0.27268   1.00
H2       0.89307    0.22223    0.05302   1.00
H2       0.92598    0.21884    0.00996   1.00
H2       0.93266    0.18507    0.05196   1.00
C5       0.62430    -0.13218   0.23348   1.00
H2       0.63760    -0.14745   0.20819   1.00
H2       0.60331    -0.11090   0.22094   1.00
C5       0.60283    -0.16194   0.25939   1.00
C5       0.56216    -0.17123   0.24271   1.00
H2       0.59950    -0.15015   0.28947   1.00
O3       0.72891    0.02000    0.31761   1.00
C4       0.75032    -0.02100   0.24972   1.00
C3c      0.71718    -0.04243   0.23868   1.00
H1       0.69099    -0.02725   0.22983   1.00
C3d      0.78433    -0.04135   0.26062   1.00
C3       0.71705    -0.08354   0.23938   1.00
O2       0.68531    -0.10248   0.22368   1.00
C3       0.78406    -0.08227   0.26207   1.00
H1       0.81038    -0.09657   0.27194   1.00
C2       0.75067    -0.10439   0.25140   1.00
C5       0.75911    0.02121    0.34561   1.00
H2       0.76627    0.05162    0.35467   1.00
H2       0.78626    0.00734    0.33418   1.00
C5       0.74522    -0.00129   0.38139   1.00
H2       0.73702    -0.03137   0.37214   1.00
H2       0.71832    0.01302    0.39277   1.00
C5       0.77710    -0.00262   0.41301   1.00
H2       0.78562    0.02732    0.42219   1.00
H2       0.80348    -0.01811   0.40212   1.00
C5       0.76193    -0.02445   0.44923   1.00
C5       0.84091    -0.01105   0.24298   1.00
C5       0.65782    -0.11070   0.25334   1.00
H2       0.82559    0.00912    0.22269   1.00
H2       0.85089    -0.03712   0.22622   1.00
H2       0.64714    -0.08300   0.26671   1.00
H2       0.67038    -0.12895   0.27732   1.00
H2       0.61892    -0.19030   0.26066   1.00
H2       0.88253    0.05753    0.21698   1.00
H2       0.90680    0.01237    0.20336   1.00
C2       0.75113    0.10395    0.25243   1.00
C3       0.75996    0.08403    0.21747   1.00
O2       0.77812    0.10326    0.18711   1.00
C3       0.74027    0.08174    0.28550   1.00
H1       0.73236    0.09615    0.31241   1.00
C3a      0.75876    0.04287    0.21658   1.00
H1       0.76776    0.02798    0.19025   1.00
C3b      0.74032    0.04078    0.28488   1.00
C4       0.74968    0.02100    0.25028   1.00
O3       0.81672    -0.02167   0.27456   1.00
C5       0.75074    0.11280    0.15788   1.00
H2       0.73633    0.08609    0.14601   1.00
C5       0.77306    0.13326    0.12529   1.00
H2       0.72780    0.13274    0.16948   1.00
H2       0.78790    0.11068    0.10724   1.00
H2       0.79654    0.15093    0.13918   1.00
C5       0.74680    0.15918    0.09967   1.00
H2       0.72181    0.14176    0.08856   1.00
C5       0.76977    0.17547    0.06466   1.00
H2       0.73561    0.18493    0.11631   1.00
C5       0.87643    0.00983    0.25974   1.00
H2       0.89529    -0.01215   0.27450   1.00
H2       0.86622    0.03048    0.28268   1.00
C5       0.89941    0.03200    0.22814   1.00
C5       0.93781    0.04775    0.24533   1.00
H2       0.56515    -0.19286   0.21762   1.00
C5       0.53649    -0.18912   0.27494   1.00
H2       0.54809    -0.14323   0.23159   1.00
C5       0.79625    -0.03337   0.47681   1.00
H2       0.73963    -0.00551   0.46505   1.00
H2       0.74759    -0.05293   0.43981   1.00
C5       0.74134    0.19503    0.03590   1.00
H2       0.79187    0.19789    0.07537   1.00
H2       0.78571    0.15063    0.04934   1.00
H2       0.93143    0.06398    0.27365   1.00
H2       0.95842    0.02239    0.25149   1.00
C5       0.95696    0.07583    0.21596   1.00
H2       0.55586    -0.20116   0.29914   1.00
H2       0.51643    -0.16571   0.28741   1.00
H2       0.51816    -0.21374   0.26212   1.00
H2       0.82367    -0.01820   0.46565   1.00
H2       0.78911    -0.02229   0.50734   1.00
H2       0.80140    -0.06621   0.47785   1.00
H2       0.71770    0.21111    0.05288   1.00
H2       0.75796    0.21664    0.01686   1.00
H2       0.72732    0.17181    0.01666   1.00
H2       0.94698    0.10693    0.22223   1.00
H2       0.99004    0.07402    0.21884   1.00
H2       0.94804    0.06734    0.18507   1.00
C5       0.73348    0.12430    -0.13218   1.00
H2       0.70819    0.13760    -0.14745   1.00
H2       0.72094    0.10331    -0.11090   1.00
C5       0.75939    0.10283    -0.16194   1.00
C5       0.74271    0.06216    -0.17123   1.00
H2       0.78947    0.09950    -0.15015   1.00
O3       0.81761    0.22891    0.02000   1.00
C4       0.74972    0.25032    -0.02100   1.00
C3c      0.73868    0.21718    -0.04243   1.00
H1       0.72983    0.19099    -0.02725   1.00
C3d      0.76062    0.28433    -0.04135   1.00
C3       0.73938    0.21705    -0.08354   1.00
O2       0.72368    0.18531    -0.10248   1.00
C3       0.76207    0.28406    -0.08227   1.00
H1       0.77194    0.31038    -0.09657   1.00
C2       0.75140    0.25067    -0.10439   1.00
C5       0.84561    0.25911    0.02121   1.00
H2       0.85467    0.26627    0.05162   1.00
H2       0.83418    0.28626    0.00734   1.00
C5       0.88139    0.24522    -0.00129   1.00
H2       0.87214    0.23702    -0.03137   1.00
H2       0.89277    0.21832    0.01302   1.00
C5       0.91301    0.27710    -0.00262   1.00
H2       0.92219    0.28562    0.02732   1.00
H2       0.90212    0.30348    -0.01811   1.00
C5       0.94923    0.26193    -0.02445   1.00
C5       0.74298    0.34091    -0.01105   1.00
C5       0.75334    0.15782    -0.11070   1.00
H2       0.72269    0.32559    0.00912   1.00
H2       0.72622    0.35089    -0.03712   1.00
H2       0.76671    0.14714    -0.08300   1.00
H2       0.77732    0.17038    -0.12895   1.00
H2       0.76066    0.11892    -0.19030   1.00
H2       0.71698    0.38253    0.05753   1.00
H2       0.70336    0.40680    0.01237   1.00
C2       0.75243    0.25113    0.10395   1.00
C3       0.71747    0.25996    0.08403   1.00
O2       0.68711    0.27812    0.10326   1.00
C3       0.78550    0.24027    0.08174   1.00
H1       0.81241    0.23236    0.09615   1.00
C3a      0.71658    0.25876    0.04287   1.00
H1       0.69025    0.26776    0.02798   1.00
C3b      0.78488    0.24032    0.04078   1.00
C4       0.75028    0.24968    0.02100   1.00
O3       0.77456    0.31672    -0.02167   1.00
C5       0.65788    0.25074    0.11280   1.00
H2       0.64601    0.23633    0.08609   1.00
C5       0.62529    0.27306    0.13326   1.00
H2       0.66948    0.22780    0.13274   1.00
H2       0.60724    0.28790    0.11068   1.00
H2       0.63918    0.29654    0.15093   1.00
C5       0.59967    0.24680    0.15918   1.00
H2       0.58856    0.22181    0.14176   1.00
C5       0.56466    0.26977    0.17547   1.00
H2       0.61631    0.23561    0.18493   1.00
C5       0.75974    0.37643    0.00983   1.00
H2       0.77450    0.39529    -0.01215   1.00
H2       0.78268    0.36622    0.03048   1.00
C5       0.72814    0.39941    0.03200   1.00
C5       0.74533    0.43781    0.04775   1.00
H2       0.71762    0.06515    -0.19286   1.00
C5       0.77494    0.03649    -0.18912   1.00
H2       0.73159    0.04809    -0.14323   1.00
C5       0.97681    0.29625    -0.03337   1.00
H2       0.96505    0.23963    -0.00551   1.00
H2       0.93981    0.24759    -0.05293   1.00
C5       0.53590    0.24134    0.19503   1.00
H2       0.57537    0.29187    0.19789   1.00
H2       0.54934    0.28571    0.15063   1.00
H2       0.77365    0.43143    0.06398   1.00
H2       0.75149    0.45842    0.02239   1.00
C5       0.71596    0.45696    0.07583   1.00
H2       0.79914    0.05586    -0.20116   1.00
H2       0.78741    0.01643    -0.16571   1.00
H2       0.76212    0.01816    -0.21374   1.00
H2       0.96565    0.32367    -0.01820   1.00
H2       1.00734    0.28911    -0.02229   1.00
H2       0.97785    0.30140    -0.06621   1.00
H2       0.55288    0.21770    0.21111   1.00
H2       0.51686    0.25796    0.21664   1.00
H2       0.51666    0.22732    0.17181   1.00
H2       0.72223    0.44698    0.10693   1.00
H2       0.71884    0.49004    0.07402   1.00
H2       0.68507    0.44804    0.06734   1.00
C5       0.89848    1.04070    1.29718   1.00
H2       0.87319    1.02740    1.31245   1.00
H2       0.88594    1.06169    1.27590   1.00
C5       0.92439    1.06217    1.32694   1.00
C5       0.90771    1.10284    1.33623   1.00
H2       0.95447    1.06550    1.31515   1.00
O3       0.98261    0.93609    1.14500   1.00
C4       0.91472    0.91468    1.18600   1.00
C3c      0.90368    0.94782    1.20743   1.00
H1       0.89483    0.97401    1.19225   1.00
C3d      0.92562    0.88067    1.20635   1.00
C3       0.90438    0.94795    1.24854   1.00
O2       0.88868    0.97969    1.26748   1.00
C3       0.92707    0.88094    1.24727   1.00
H1       0.93694    0.85462    1.26157   1.00
C2       0.91640    0.91433    1.26939   1.00
C5       1.01061    0.90589    1.14379   1.00
H2       1.01967    0.89873    1.11338   1.00
H2       0.99918    0.87874    1.15766   1.00
C5       1.04639    0.91978    1.16629   1.00
H2       1.03714    0.92798    1.19637   1.00
H2       1.05777    0.94668    1.15198   1.00
C5       1.07801    0.88790    1.16762   1.00
H2       1.08719    0.87938    1.13768   1.00
H2       1.06712    0.86152    1.18311   1.00
C5       1.11423    0.90307    1.18945   1.00
C5       0.90798    0.82409    1.17605   1.00
C5       0.91834    1.00718    1.27570   1.00
H2       0.88769    0.83941    1.15588   1.00
H2       0.89122    0.81411    1.20212   1.00
H2       0.93171    1.01786    1.24800   1.00
H2       0.94232    0.99462    1.29395   1.00
H2       0.92566    1.04608    1.35530   1.00
H2       0.88198    0.78247    1.10747   1.00
H2       0.86836    0.75820    1.15263   1.00
C2       0.91743    0.91387    1.06105   1.00
C3       0.88247    0.90504    1.08097   1.00
O2       0.85211    0.88688    1.06174   1.00
C3       0.95050    0.92473    1.08326   1.00
H1       0.97741    0.93264    1.06885   1.00
C3a      0.88158    0.90624    1.12213   1.00
H1       0.85525    0.89724    1.13702   1.00
C3b      0.94988    0.92468    1.12422   1.00
C4       0.91528    0.91532    1.14400   1.00
O3       0.93956    0.84828    1.18667   1.00
C5       0.82288    0.91426    1.05220   1.00
H2       0.81101    0.92867    1.07891   1.00
C5       0.79029    0.89194    1.03174   1.00
H2       0.83448    0.93720    1.03226   1.00
H2       0.77224    0.87710    1.05432   1.00
H2       0.80418    0.86846    1.01407   1.00
C5       0.76467    0.91820    1.00582   1.00
H2       0.75356    0.94319    1.02324   1.00
C5       0.72966    0.89523    0.98953   1.00
H2       0.78131    0.92939    0.98007   1.00
C5       0.92474    0.78857    1.15517   1.00
H2       0.93950    0.76971    1.17715   1.00
H2       0.94768    0.79878    1.13452   1.00
C5       0.89314    0.76559    1.13300   1.00
C5       0.91033    0.72719    1.11725   1.00
H2       0.88262    1.09985    1.35786   1.00
C5       0.93994    1.12851    1.35412   1.00
H2       0.89659    1.11691    1.30823   1.00
C5       1.14181    0.86875    1.19837   1.00
H2       1.13005    0.92537    1.17051   1.00
H2       1.10481    0.91741    1.21793   1.00
C5       0.70090    0.92366    0.96997   1.00
H2       0.74037    0.87313    0.96711   1.00
H2       0.71434    0.87929    1.01437   1.00
H2       0.93865    0.73357    1.10102   1.00
H2       0.91649    0.70658    1.14261   1.00
C5       0.88096    0.70804    1.08917   1.00
H2       0.96414    1.10914    1.36616   1.00
H2       0.95241    1.14857    1.33071   1.00
H2       0.92712    1.14684    1.37874   1.00
H2       1.13065    0.84133    1.18320   1.00
H2       1.17234    0.87589    1.18729   1.00
H2       1.14285    0.86360    1.23121   1.00
H2       0.71788    0.94730    0.95389   1.00
H2       0.68186    0.90704    0.94836   1.00
H2       0.68166    0.93768    0.99319   1.00
H2       0.88723    0.71802    1.05807   1.00
H2       0.88384    0.67496    1.09098   1.00
H2       0.85007    0.71696    1.09766   1.00
C5       1.04070    1.29718    0.89848   1.00
H2       1.02740    1.31245    0.87319   1.00
H2       1.06169    1.27590    0.88594   1.00
C5       1.06217    1.32694    0.92439   1.00
C5       1.10284    1.33623    0.90771   1.00
H2       1.06550    1.31515    0.95447   1.00
O3       0.93609    1.14500    0.98261   1.00
C4       0.91468    1.18600    0.91472   1.00
C3c      0.94782    1.20743    0.90368   1.00
H1       0.97401    1.19225    0.89483   1.00
C3d      0.88067    1.20635    0.92562   1.00
C3       0.94795    1.24854    0.90438   1.00
O2       0.97969    1.26748    0.88868   1.00
C3       0.88094    1.24727    0.92707   1.00
H1       0.85462    1.26157    0.93694   1.00
C2       0.91433    1.26939    0.91640   1.00
C5       0.90589    1.14379    1.01061   1.00
H2       0.89873    1.11338    1.01967   1.00
H2       0.87874    1.15766    0.99918   1.00
C5       0.91978    1.16629    1.04639   1.00
H2       0.92798    1.19637    1.03714   1.00
H2       0.94668    1.15198    1.05777   1.00
C5       0.88790    1.16762    1.07801   1.00
H2       0.87938    1.13768    1.08719   1.00
H2       0.86152    1.18311    1.06712   1.00
C5       0.90307    1.18945    1.11423   1.00
C5       0.82409    1.17605    0.90798   1.00
C5       1.00718    1.27570    0.91834   1.00
H2       0.83941    1.15588    0.88769   1.00
H2       0.81411    1.20212    0.89122   1.00
H2       1.01786    1.24800    0.93171   1.00
H2       0.99462    1.29395    0.94232   1.00
H2       1.04608    1.35530    0.92566   1.00
H2       0.78247    1.10747    0.88198   1.00
H2       0.75820    1.15263    0.86836   1.00
C2       0.91387    1.06105    0.91743   1.00
C3       0.90504    1.08097    0.88247   1.00
O2       0.88688    1.06174    0.85211   1.00
C3       0.92473    1.08326    0.95050   1.00
H1       0.93264    1.06885    0.97741   1.00
C3a      0.90624    1.12213    0.88158   1.00
H1       0.89724    1.13702    0.85525   1.00
C3b      0.92468    1.12422    0.94988   1.00
C4       0.91532    1.14400    0.91528   1.00
O3       0.84828    1.18667    0.93956   1.00
C5       0.91426    1.05220    0.82288   1.00
H2       0.92867    1.07891    0.81101   1.00
C5       0.89194    1.03174    0.79029   1.00
H2       0.93720    1.03226    0.83448   1.00
H2       0.87710    1.05432    0.77224   1.00
H2       0.86846    1.01407    0.80418   1.00
C5       0.91820    1.00582    0.76467   1.00
H2       0.94319    1.02324    0.75356   1.00
C5       0.89523    0.98953    0.72966   1.00
H2       0.92939    0.98007    0.78131   1.00
C5       0.78857    1.15517    0.92474   1.00
H2       0.76971    1.17715    0.93950   1.00
H2       0.79878    1.13452    0.94768   1.00
C5       0.76559    1.13300    0.89314   1.00
C5       0.72719    1.11725    0.91033   1.00
H2       1.09985    1.35786    0.88262   1.00
C5       1.12851    1.35412    0.93994   1.00
H2       1.11691    1.30823    0.89659   1.00
C5       0.86875    1.19837    1.14181   1.00
H2       0.92537    1.17051    1.13005   1.00
H2       0.91741    1.21793    1.10481   1.00
C5       0.92366    0.96997    0.70090   1.00
H2       0.87313    0.96711    0.74037   1.00
H2       0.87929    1.01437    0.71434   1.00
H2       0.73357    1.10102    0.93865   1.00
H2       0.70658    1.14261    0.91649   1.00
C5       0.70804    1.08917    0.88096   1.00
H2       1.10914    1.36616    0.96414   1.00
H2       1.14857    1.33071    0.95241   1.00
H2       1.14684    1.37874    0.92712   1.00
H2       0.84133    1.18320    1.13065   1.00
H2       0.87589    1.18729    1.17234   1.00
H2       0.86360    1.23121    1.14285   1.00
H2       0.94730    0.95389    0.71788   1.00
H2       0.90704    0.94836    0.68186   1.00
H2       0.93768    0.99319    0.68166   1.00
H2       0.71802    1.05807    0.88723   1.00
H2       0.67496    1.09098    0.88384   1.00
H2       0.71696    1.09766    0.85007   1.00
C5       0.53282    0.89848    0.78930   1.00
H2       0.51755    0.87319    0.80260   1.00
H2       0.55410    0.88594    0.76831   1.00
C5       0.50306    0.92439    0.76783   1.00
C5       0.49377    0.90771    0.72716   1.00
H2       0.51485    0.95447    0.76450   1.00
O3       0.68500    0.98261    0.89391   1.00
C4       0.64400    0.91472    0.91532   1.00
C3c      0.62257    0.90368    0.88218   1.00
H1       0.63775    0.89483    0.85599   1.00
C3d      0.62365    0.92562    0.94933   1.00
C3       0.58146    0.90438    0.88205   1.00
O2       0.56252    0.88868    0.85031   1.00
C3       0.58273    0.92707    0.94906   1.00
H1       0.56843    0.93694    0.97538   1.00
C2       0.56061    0.91640    0.91567   1.00
C5       0.68621    1.01061    0.92411   1.00
H2       0.71662    1.01967    0.93127   1.00
H2       0.67234    0.99918    0.95126   1.00
C5       0.66371    1.04639    0.91022   1.00
H2       0.63363    1.03714    0.90202   1.00
H2       0.67802    1.05777    0.88332   1.00
C5       0.66238    1.07801    0.94210   1.00
H2       0.69232    1.08719    0.95062   1.00
H2       0.64689    1.06712    0.96848   1.00
C5       0.64055    1.11423    0.92693   1.00
C5       0.65395    0.90798    1.00591   1.00
C5       0.55430    0.91834    0.82282   1.00
H2       0.67412    0.88769    0.99059   1.00
H2       0.62788    0.89122    1.01589   1.00
H2       0.58200    0.93171    0.81214   1.00
H2       0.53605    0.94232    0.83538   1.00
H2       0.47470    0.92566    0.78392   1.00
H2       0.72253    0.88198    1.04753   1.00
H2       0.67737    0.86836    1.07180   1.00
C2       0.76895    0.91743    0.91613   1.00
C3       0.74903    0.88247    0.92496   1.00
O2       0.76826    0.85211    0.94312   1.00
C3       0.74674    0.95050    0.90527   1.00
H1       0.76115    0.97741    0.89736   1.00
C3a      0.70787    0.88158    0.92376   1.00
H1       0.69298    0.85525    0.93276   1.00
C3b      0.70578    0.94988    0.90532   1.00
C4       0.68600    0.91528    0.91468   1.00
O3       0.64333    0.93956    0.98172   1.00
C5       0.77780    0.82288    0.91574   1.00
H2       0.75109    0.81101    0.90133   1.00
C5       0.79826    0.79029    0.93806   1.00
H2       0.79774    0.83448    0.89280   1.00
H2       0.77568    0.77224    0.95290   1.00
H2       0.81593    0.80418    0.96154   1.00
C5       0.82418    0.76467    0.91180   1.00
H2       0.80676    0.75356    0.88681   1.00
C5       0.84047    0.72966    0.93477   1.00
H2       0.84993    0.78131    0.90061   1.00
C5       0.67483    0.92474    1.04143   1.00
H2       0.65285    0.93950    1.06029   1.00
H2       0.69548    0.94768    1.03122   1.00
C5       0.69700    0.89314    1.06441   1.00
C5       0.71275    0.91033    1.10281   1.00
H2       0.47214    0.88262    0.73015   1.00
C5       0.47588    0.93994    0.70149   1.00
H2       0.52177    0.89659    0.71309   1.00
C5       0.63163    1.14181    0.96125   1.00
H2       0.65949    1.13005    0.90463   1.00
H2       0.61207    1.10481    0.91259   1.00
C5       0.86003    0.70090    0.90634   1.00
H2       0.86289    0.74037    0.95687   1.00
H2       0.81563    0.71434    0.95071   1.00
H2       0.72898    0.93865    1.09643   1.00
H2       0.68739    0.91649    1.12342   1.00
C5       0.74083    0.88096    1.12196   1.00
H2       0.46384    0.96414    0.72086   1.00
H2       0.49929    0.95241    0.68143   1.00
H2       0.45126    0.92712    0.68316   1.00
H2       0.64680    1.13065    0.98867   1.00
H2       0.64271    1.17234    0.95411   1.00
H2       0.59879    1.14285    0.96640   1.00
H2       0.87611    0.71788    0.88270   1.00
H2       0.88164    0.68186    0.92296   1.00
H2       0.83681    0.68166    0.89232   1.00
H2       0.77193    0.88723    1.11198   1.00
H2       0.73902    0.88384    1.15504   1.00
H2       0.73234    0.85007    1.11304   1.00
C5       1.29718    0.89848    1.04070   1.00
H2       1.31245    0.87319    1.02740   1.00
H2       1.27590    0.88594    1.06169   1.00
C5       1.32694    0.92439    1.06217   1.00
C5       1.33623    0.90771    1.10284   1.00
H2       1.31515    0.95447    1.06550   1.00
O3       1.14500    0.98261    0.93609   1.00
C4       1.18600    0.91472    0.91468   1.00
C3c      1.20743    0.90368    0.94782   1.00
H1       1.19225    0.89483    0.97401   1.00
C3d      1.20635    0.92562    0.88067   1.00
C3       1.24854    0.90438    0.94795   1.00
O2       1.26748    0.88868    0.97969   1.00
C3       1.24727    0.92707    0.88094   1.00
H1       1.26157    0.93694    0.85462   1.00
C2       1.26939    0.91640    0.91433   1.00
C5       1.14379    1.01061    0.90589   1.00
H2       1.11338    1.01967    0.89873   1.00
H2       1.15766    0.99918    0.87874   1.00
C5       1.16629    1.04639    0.91978   1.00
H2       1.19637    1.03714    0.92798   1.00
H2       1.15198    1.05777    0.94668   1.00
C5       1.16762    1.07801    0.88790   1.00
H2       1.13768    1.08719    0.87938   1.00
H2       1.18311    1.06712    0.86152   1.00
C5       1.18945    1.11423    0.90307   1.00
C5       1.17605    0.90798    0.82409   1.00
C5       1.27570    0.91834    1.00718   1.00
H2       1.15588    0.88769    0.83941   1.00
H2       1.20212    0.89122    0.81411   1.00
H2       1.24800    0.93171    1.01786   1.00
H2       1.29395    0.94232    0.99462   1.00
H2       1.35530    0.92566    1.04608   1.00
H2       1.10747    0.88198    0.78247   1.00
H2       1.15263    0.86836    0.75820   1.00
C2       1.06105    0.91743    0.91387   1.00
C3       1.08097    0.88247    0.90504   1.00
O2       1.06174    0.85211    0.88688   1.00
C3       1.08326    0.95050    0.92473   1.00
H1       1.06885    0.97741    0.93264   1.00
C3a      1.12213    0.88158    0.90624   1.00
H1       1.13702    0.85525    0.89724   1.00
C3b      1.12422    0.94988    0.92468   1.00
C4       1.14400    0.91528    0.91532   1.00
O3       1.18667    0.93956    0.84828   1.00
C5       1.05220    0.82288    0.91426   1.00
H2       1.07891    0.81101    0.92867   1.00
C5       1.03174    0.79029    0.89194   1.00
H2       1.03226    0.83448    0.93720   1.00
H2       1.05432    0.77224    0.87710   1.00
H2       1.01407    0.80418    0.86846   1.00
C5       1.00582    0.76467    0.91820   1.00
H2       1.02324    0.75356    0.94319   1.00
C5       0.98953    0.72966    0.89523   1.00
H2       0.98007    0.78131    0.92939   1.00
C5       1.15517    0.92474    0.78857   1.00
H2       1.17715    0.93950    0.76971   1.00
H2       1.13452    0.94768    0.79878   1.00
C5       1.13300    0.89314    0.76559   1.00
C5       1.11725    0.91033    0.72719   1.00
H2       1.35786    0.88262    1.09985   1.00
C5       1.35412    0.93994    1.12851   1.00
H2       1.30823    0.89659    1.11691   1.00
C5       1.19837    1.14181    0.86875   1.00
H2       1.17051    1.13005    0.92537   1.00
H2       1.21793    1.10481    0.91741   1.00
C5       0.96997    0.70090    0.92366   1.00
H2       0.96711    0.74037    0.87313   1.00
H2       1.01437    0.71434    0.87929   1.00
H2       1.10102    0.93865    0.73357   1.00
H2       1.14261    0.91649    0.70658   1.00
C5       1.08917    0.88096    0.70804   1.00
H2       1.36616    0.96414    1.10914   1.00
H2       1.33071    0.95241    1.14857   1.00
H2       1.37874    0.92712    1.14684   1.00
H2       1.18320    1.13065    0.84133   1.00
H2       1.18729    1.17234    0.87589   1.00
H2       1.23121    1.14285    0.86360   1.00
H2       0.95389    0.71788    0.94730   1.00
H2       0.94836    0.68186    0.90704   1.00
H2       0.99319    0.68166    0.93768   1.00
H2       1.05807    0.88723    0.71802   1.00
H2       1.09098    0.88384    0.67496   1.00
H2       1.09766    0.85007    0.71696   1.00
C5       0.78930    0.53282    0.89848   1.00
H2       0.80260    0.51755    0.87319   1.00
H2       0.76831    0.55410    0.88594   1.00
C5       0.76783    0.50306    0.92439   1.00
C5       0.72716    0.49377    0.90771   1.00
H2       0.76450    0.51485    0.95447   1.00
O3       0.89391    0.68500    0.98261   1.00
C4       0.91532    0.64400    0.91472   1.00
C3c      0.88218    0.62257    0.90368   1.00
H1       0.85599    0.63775    0.89483   1.00
C3d      0.94933    0.62365    0.92562   1.00
C3       0.88205    0.58146    0.90438   1.00
O2       0.85031    0.56252    0.88868   1.00
C3       0.94906    0.58273    0.92707   1.00
H1       0.97538    0.56843    0.93694   1.00
C2       0.91567    0.56061    0.91640   1.00
C5       0.92411    0.68621    1.01061   1.00
H2       0.93127    0.71662    1.01967   1.00
H2       0.95126    0.67234    0.99918   1.00
C5       0.91022    0.66371    1.04639   1.00
H2       0.90202    0.63363    1.03714   1.00
H2       0.88332    0.67802    1.05777   1.00
C5       0.94210    0.66238    1.07801   1.00
H2       0.95062    0.69232    1.08719   1.00
H2       0.96848    0.64689    1.06712   1.00
C5       0.92693    0.64055    1.11423   1.00
C5       1.00591    0.65395    0.90798   1.00
C5       0.82282    0.55430    0.91834   1.00
H2       0.99059    0.67412    0.88769   1.00
H2       1.01589    0.62788    0.89122   1.00
H2       0.81214    0.58200    0.93171   1.00
H2       0.83538    0.53605    0.94232   1.00
H2       0.78392    0.47470    0.92566   1.00
H2       1.04753    0.72253    0.88198   1.00
H2       1.07180    0.67737    0.86836   1.00
C2       0.91613    0.76895    0.91743   1.00
C3       0.92496    0.74903    0.88247   1.00
O2       0.94312    0.76826    0.85211   1.00
C3       0.90527    0.74674    0.95050   1.00
H1       0.89736    0.76115    0.97741   1.00
C3a      0.92376    0.70787    0.88158   1.00
H1       0.93276    0.69298    0.85525   1.00
C3b      0.90532    0.70578    0.94988   1.00
C4       0.91468    0.68600    0.91528   1.00
O3       0.98172    0.64333    0.93956   1.00
C5       0.91574    0.77780    0.82288   1.00
H2       0.90133    0.75109    0.81101   1.00
C5       0.93806    0.79826    0.79029   1.00
H2       0.89280    0.79774    0.83448   1.00
H2       0.95290    0.77568    0.77224   1.00
H2       0.96154    0.81593    0.80418   1.00
C5       0.91180    0.82418    0.76467   1.00
H2       0.88681    0.80676    0.75356   1.00
C5       0.93477    0.84047    0.72966   1.00
H2       0.90061    0.84993    0.78131   1.00
C5       1.04143    0.67483    0.92474   1.00
H2       1.06029    0.65285    0.93950   1.00
H2       1.03122    0.69548    0.94768   1.00
C5       1.06441    0.69700    0.89314   1.00
C5       1.10281    0.71275    0.91033   1.00
H2       0.73015    0.47214    0.88262   1.00
C5       0.70149    0.47588    0.93994   1.00
H2       0.71309    0.52177    0.89659   1.00
C5       0.96125    0.63163    1.14181   1.00
H2       0.90463    0.65949    1.13005   1.00
H2       0.91259    0.61207    1.10481   1.00
C5       0.90634    0.86003    0.70090   1.00
H2       0.95687    0.86289    0.74037   1.00
H2       0.95071    0.81563    0.71434   1.00
H2       1.09643    0.72898    0.93865   1.00
H2       1.12342    0.68739    0.91649   1.00
C5       1.12196    0.74083    0.88096   1.00
H2       0.72086    0.46384    0.96414   1.00
H2       0.68143    0.49929    0.95241   1.00
H2       0.68316    0.45126    0.92712   1.00
H2       0.98867    0.64680    1.13065   1.00
H2       0.95411    0.64271    1.17234   1.00
H2       0.96640    0.59879    1.14285   1.00
H2       0.88270    0.87611    0.71788   1.00
H2       0.92296    0.88164    0.68186   1.00
H2       0.89232    0.83681    0.68166   1.00
H2       1.11198    0.77193    0.88723   1.00
H2       1.15504    0.73902    0.88384   1.00
H2       1.11304    0.73234    0.85007   1.00
C5       0.89848    0.78930    0.53282   1.00
H2       0.87319    0.80260    0.51755   1.00
H2       0.88594    0.76831    0.55410   1.00
C5       0.92439    0.76783    0.50306   1.00
C5       0.90771    0.72716    0.49377   1.00
H2       0.95447    0.76450    0.51485   1.00
O3       0.98261    0.89391    0.68500   1.00
C4       0.91472    0.91532    0.64400   1.00
C3c      0.90368    0.88218    0.62257   1.00
H1       0.89483    0.85599    0.63775   1.00
C3d      0.92562    0.94933    0.62365   1.00
C3       0.90438    0.88205    0.58146   1.00
O2       0.88868    0.85031    0.56252   1.00
C3       0.92707    0.94906    0.58273   1.00
H1       0.93694    0.97538    0.56843   1.00
C2       0.91640    0.91567    0.56061   1.00
C5       1.01061    0.92411    0.68621   1.00
H2       1.01967    0.93127    0.71662   1.00
H2       0.99918    0.95126    0.67234   1.00
C5       1.04639    0.91022    0.66371   1.00
H2       1.03714    0.90202    0.63363   1.00
H2       1.05777    0.88332    0.67802   1.00
C5       1.07801    0.94210    0.66238   1.00
H2       1.08719    0.95062    0.69232   1.00
H2       1.06712    0.96848    0.64689   1.00
C5       1.11423    0.92693    0.64055   1.00
C5       0.90798    1.00591    0.65395   1.00
C5       0.91834    0.82282    0.55430   1.00
H2       0.88769    0.99059    0.67412   1.00
H2       0.89122    1.01589    0.62788   1.00
H2       0.93171    0.81214    0.58200   1.00
H2       0.94232    0.83538    0.53605   1.00
H2       0.92566    0.78392    0.47470   1.00
H2       0.88198    1.04753    0.72253   1.00
H2       0.86836    1.07180    0.67737   1.00
C2       0.91743    0.91613    0.76895   1.00
C3       0.88247    0.92496    0.74903   1.00
O2       0.85211    0.94312    0.76826   1.00
C3       0.95050    0.90527    0.74674   1.00
H1       0.97741    0.89736    0.76115   1.00
C3a      0.88158    0.92376    0.70787   1.00
H1       0.85525    0.93276    0.69298   1.00
C3b      0.94988    0.90532    0.70578   1.00
C4       0.91528    0.91468    0.68600   1.00
O3       0.93956    0.98172    0.64333   1.00
C5       0.82288    0.91574    0.77780   1.00
H2       0.81101    0.90133    0.75109   1.00
C5       0.79029    0.93806    0.79826   1.00
H2       0.83448    0.89280    0.79774   1.00
H2       0.77224    0.95290    0.77568   1.00
H2       0.80418    0.96154    0.81593   1.00
C5       0.76467    0.91180    0.82418   1.00
H2       0.75356    0.88681    0.80676   1.00
C5       0.72966    0.93477    0.84047   1.00
H2       0.78131    0.90061    0.84993   1.00
C5       0.92474    1.04143    0.67483   1.00
H2       0.93950    1.06029    0.65285   1.00
H2       0.94768    1.03122    0.69548   1.00
C5       0.89314    1.06441    0.69700   1.00
C5       0.91033    1.10281    0.71275   1.00
H2       0.88262    0.73015    0.47214   1.00
C5       0.93994    0.70149    0.47588   1.00
H2       0.89659    0.71309    0.52177   1.00
C5       1.14181    0.96125    0.63163   1.00
H2       1.13005    0.90463    0.65949   1.00
H2       1.10481    0.91259    0.61207   1.00
C5       0.70090    0.90634    0.86003   1.00
H2       0.74037    0.95687    0.86289   1.00
H2       0.71434    0.95071    0.81563   1.00
H2       0.93865    1.09643    0.72898   1.00
H2       0.91649    1.12342    0.68739   1.00
C5       0.88096    1.12196    0.74083   1.00
H2       0.96414    0.72086    0.46384   1.00
H2       0.95241    0.68143    0.49929   1.00
H2       0.92712    0.68316    0.45126   1.00
H2       1.13065    0.98867    0.64680   1.00
H2       1.17234    0.95411    0.64271   1.00
H2       1.14285    0.96640    0.59879   1.00
H2       0.71788    0.88270    0.87611   1.00
H2       0.68186    0.92296    0.88164   1.00
H2       0.68166    0.89232    0.83681   1.00
H2       0.88723    1.11198    0.77193   1.00
H2       0.88384    1.15504    0.73902   1.00
H2       0.85007    1.11304    0.73234   1.00
C5       0.39848    0.54070    1.29718   1.00
H2       0.37319    0.52740    1.31245   1.00
H2       0.38594    0.56169    1.27590   1.00
C5       0.42439    0.56217    1.32694   1.00
C5       0.40771    0.60284    1.33623   1.00
H2       0.45447    0.56550    1.31515   1.00
O3       0.48261    0.43609    1.14500   1.00
C4       0.41472    0.41468    1.18600   1.00
C3c      0.40368    0.44782    1.20743   1.00
H1       0.39483    0.47401    1.19225   1.00
C3d      0.42562    0.38067    1.20635   1.00
C3       0.40438    0.44795    1.24854   1.00
O2       0.38868    0.47969    1.26748   1.00
C3       0.42707    0.38094    1.24727   1.00
H1       0.43694    0.35462    1.26157   1.00
C2       0.41640    0.41433    1.26939   1.00
C5       0.51061    0.40589    1.14379   1.00
H2       0.51967    0.39873    1.11338   1.00
H2       0.49918    0.37874    1.15766   1.00
C5       0.54639    0.41978    1.16629   1.00
H2       0.53714    0.42798    1.19637   1.00
H2       0.55777    0.44668    1.15198   1.00
C5       0.57801    0.38790    1.16762   1.00
H2       0.58719    0.37938    1.13768   1.00
H2       0.56712    0.36152    1.18311   1.00
C5       0.61423    0.40307    1.18945   1.00
C5       0.40798    0.32409    1.17605   1.00
C5       0.41834    0.50718    1.27570   1.00
H2       0.38769    0.33941    1.15588   1.00
H2       0.39122    0.31411    1.20212   1.00
H2       0.43171    0.51786    1.24800   1.00
H2       0.44232    0.49462    1.29395   1.00
H2       0.42566    0.54608    1.35530   1.00
H2       0.38198    0.28247    1.10747   1.00
H2       0.36836    0.25820    1.15263   1.00
C2       0.41743    0.41387    1.06105   1.00
C3       0.38247    0.40504    1.08097   1.00
O2       0.35211    0.38688    1.06174   1.00
C3       0.45050    0.42473    1.08326   1.00
H1       0.47741    0.43264    1.06885   1.00
C3a      0.38158    0.40624    1.12213   1.00
H1       0.35525    0.39724    1.13702   1.00
C3b      0.44988    0.42468    1.12422   1.00
C4       0.41528    0.41532    1.14400   1.00
O3       0.43956    0.34828    1.18667   1.00
C5       0.32288    0.41426    1.05220   1.00
H2       0.31101    0.42867    1.07891   1.00
C5       0.29029    0.39194    1.03174   1.00
H2       0.33448    0.43720    1.03226   1.00
H2       0.27224    0.37710    1.05432   1.00
H2       0.30418    0.36846    1.01407   1.00
C5       0.26467    0.41820    1.00582   1.00
H2       0.25356    0.44319    1.02324   1.00
C5       0.22966    0.39523    0.98953   1.00
H2       0.28131    0.42939    0.98007   1.00
C5       0.42474    0.28857    1.15517   1.00
H2       0.43950    0.26971    1.17715   1.00
H2       0.44768    0.29878    1.13452   1.00
C5       0.39314    0.26559    1.13300   1.00
C5       0.41033    0.22719    1.11725   1.00
H2       0.38262    0.59985    1.35786   1.00
C5       0.43994    0.62851    1.35412   1.00
H2       0.39659    0.61691    1.30823   1.00
C5       0.64181    0.36875    1.19837   1.00
H2       0.63005    0.42537    1.17051   1.00
H2       0.60481    0.41741    1.21793   1.00
C5       0.20090    0.42366    0.96997   1.00
H2       0.24037    0.37313    0.96711   1.00
H2       0.21434    0.37929    1.01437   1.00
H2       0.43865    0.23357    1.10102   1.00
H2       0.41649    0.20658    1.14261   1.00
C5       0.38096    0.20804    1.08917   1.00
H2       0.46414    0.60914    1.36616   1.00
H2       0.45241    0.64857    1.33071   1.00
H2       0.42712    0.64684    1.37874   1.00
H2       0.63065    0.34133    1.18320   1.00
H2       0.67234    0.37589    1.18729   1.00
H2       0.64285    0.36360    1.23121   1.00
H2       0.21788    0.44730    0.95389   1.00
H2       0.18186    0.40704    0.94836   1.00
H2       0.18166    0.43768    0.99319   1.00
H2       0.38723    0.21802    1.05807   1.00
H2       0.38384    0.17496    1.09098   1.00
H2       0.35007    0.21696    1.09766   1.00
C5       0.54070    0.79718    0.89848   1.00
H2       0.52740    0.81245    0.87319   1.00
H2       0.56169    0.77590    0.88594   1.00
C5       0.56217    0.82694    0.92439   1.00
C5       0.60284    0.83623    0.90771   1.00
H2       0.56550    0.81515    0.95447   1.00
O3       0.43609    0.64500    0.98261   1.00
C4       0.41468    0.68600    0.91472   1.00
C3c      0.44782    0.70743    0.90368   1.00
H1       0.47401    0.69225    0.89483   1.00
C3d      0.38067    0.70635    0.92562   1.00
C3       0.44795    0.74854    0.90438   1.00
O2       0.47969    0.76748    0.88868   1.00
C3       0.38094    0.74727    0.92707   1.00
H1       0.35462    0.76157    0.93694   1.00
C2       0.41433    0.76939    0.91640   1.00
C5       0.40589    0.64379    1.01061   1.00
H2       0.39873    0.61338    1.01967   1.00
H2       0.37874    0.65766    0.99918   1.00
C5       0.41978    0.66629    1.04639   1.00
H2       0.42798    0.69637    1.03714   1.00
H2       0.44668    0.65198    1.05777   1.00
C5       0.38790    0.66762    1.07801   1.00
H2       0.37938    0.63768    1.08719   1.00
H2       0.36152    0.68311    1.06712   1.00
C5       0.40307    0.68945    1.11423   1.00
C5       0.32409    0.67605    0.90798   1.00
C5       0.50718    0.77570    0.91834   1.00
H2       0.33941    0.65588    0.88769   1.00
H2       0.31411    0.70212    0.89122   1.00
H2       0.51786    0.74800    0.93171   1.00
H2       0.49462    0.79395    0.94232   1.00
H2       0.54608    0.85530    0.92566   1.00
H2       0.28247    0.60747    0.88198   1.00
H2       0.25820    0.65263    0.86836   1.00
C2       0.41387    0.56105    0.91743   1.00
C3       0.40504    0.58097    0.88247   1.00
O2       0.38688    0.56174    0.85211   1.00
C3       0.42473    0.58326    0.95050   1.00
H1       0.43264    0.56885    0.97741   1.00
C3a      0.40624    0.62213    0.88158   1.00
H1       0.39724    0.63702    0.85525   1.00
C3b      0.42468    0.62422    0.94988   1.00
C4       0.41532    0.64400    0.91528   1.00
O3       0.34828    0.68667    0.93956   1.00
C5       0.41426    0.55220    0.82288   1.00
H2       0.42867    0.57891    0.81101   1.00
C5       0.39194    0.53174    0.79029   1.00
H2       0.43720    0.53226    0.83448   1.00
H2       0.37710    0.55432    0.77224   1.00
H2       0.36846    0.51407    0.80418   1.00
C5       0.41820    0.50582    0.76467   1.00
H2       0.44319    0.52324    0.75356   1.00
C5       0.39523    0.48953    0.72966   1.00
H2       0.42939    0.48007    0.78131   1.00
C5       0.28857    0.65517    0.92474   1.00
H2       0.26971    0.67715    0.93950   1.00
H2       0.29878    0.63452    0.94768   1.00
C5       0.26559    0.63300    0.89314   1.00
C5       0.22719    0.61725    0.91033   1.00
H2       0.59985    0.85786    0.88262   1.00
C5       0.62851    0.85412    0.93994   1.00
H2       0.61691    0.80823    0.89659   1.00
C5       0.36875    0.69837    1.14181   1.00
H2       0.42537    0.67051    1.13005   1.00
H2       0.41741    0.71793    1.10481   1.00
C5       0.42366    0.46997    0.70090   1.00
H2       0.37313    0.46711    0.74037   1.00
H2       0.37929    0.51437    0.71434   1.00
H2       0.23357    0.60102    0.93865   1.00
H2       0.20658    0.64261    0.91649   1.00
C5       0.20804    0.58917    0.88096   1.00
H2       0.60914    0.86616    0.96414   1.00
H2       0.64857    0.83071    0.95241   1.00
H2       0.64684    0.87874    0.92712   1.00
H2       0.34133    0.68320    1.13065   1.00
H2       0.37589    0.68729    1.17234   1.00
H2       0.36360    0.73121    1.14285   1.00
H2       0.44730    0.45389    0.71788   1.00
H2       0.40704    0.44836    0.68186   1.00
H2       0.43768    0.49319    0.68166   1.00
H2       0.21802    0.55807    0.88723   1.00
H2       0.17496    0.59098    0.88384   1.00
H2       0.21696    0.59766    0.85007   1.00
C5       0.03282    0.39848    0.78930   1.00
H2       0.01755    0.37319    0.80260   1.00
H2       0.05410    0.38594    0.76831   1.00
C5       0.00306    0.42439    0.76783   1.00
C5       -0.00623   0.40771    0.72716   1.00
H2       0.01485    0.45447    0.76450   1.00
O3       0.18500    0.48261    0.89391   1.00
C4       0.14400    0.41472    0.91532   1.00
C3c      0.12257    0.40368    0.88218   1.00
H1       0.13775    0.39483    0.85599   1.00
C3d      0.12365    0.42562    0.94933   1.00
C3       0.08146    0.40438    0.88205   1.00
O2       0.06252    0.38868    0.85031   1.00
C3       0.08273    0.42707    0.94906   1.00
H1       0.06843    0.43694    0.97538   1.00
C2       0.06061    0.41640    0.91567   1.00
C5       0.18621    0.51061    0.92411   1.00
H2       0.21662    0.51967    0.93127   1.00
H2       0.17234    0.49918    0.95126   1.00
C5       0.16371    0.54639    0.91022   1.00
H2       0.13363    0.53714    0.90202   1.00
H2       0.17802    0.55777    0.88332   1.00
C5       0.16238    0.57801    0.94210   1.00
H2       0.19232    0.58719    0.95062   1.00
H2       0.14689    0.56712    0.96848   1.00
C5       0.14055    0.61423    0.92693   1.00
C5       0.15395    0.40798    1.00591   1.00
C5       0.05430    0.41834    0.82282   1.00
H2       0.17412    0.38769    0.99059   1.00
H2       0.12788    0.39122    1.01589   1.00
H2       0.08200    0.43171    0.81214   1.00
H2       0.03605    0.44232    0.83538   1.00
H2       -0.02530   0.42566    0.78392   1.00
H2       0.22253    0.38198    1.04753   1.00
H2       0.17737    0.36836    1.07180   1.00
C2       0.26895    0.41743    0.91613   1.00
C3       0.24903    0.38247    0.92496   1.00
O2       0.26826    0.35211    0.94312   1.00
C3       0.24674    0.45050    0.90527   1.00
H1       0.26115    0.47741    0.89736   1.00
C3a      0.20787    0.38158    0.92376   1.00
H1       0.19298    0.35525    0.93276   1.00
C3b      0.20578    0.44988    0.90532   1.00
C4       0.18600    0.41528    0.91468   1.00
O3       0.14333    0.43956    0.98172   1.00
C5       0.27780    0.32288    0.91574   1.00
H2       0.25109    0.31101    0.90133   1.00
C5       0.29826    0.29029    0.93806   1.00
H2       0.29774    0.33448    0.89280   1.00
H2       0.27568    0.27224    0.95290   1.00
H2       0.31593    0.30418    0.96154   1.00
C5       0.32418    0.26467    0.91180   1.00
H2       0.30676    0.25356    0.88681   1.00
C5       0.34047    0.22966    0.93477   1.00
H2       0.34993    0.28131    0.90061   1.00
C5       0.17483    0.42474    1.04143   1.00
H2       0.15285    0.43950    1.06029   1.00
H2       0.19548    0.44768    1.03122   1.00
C5       0.19700    0.39314    1.06441   1.00
C5       0.21275    0.41033    1.10281   1.00
H2       -0.02786   0.38262    0.73015   1.00
C5       -0.02412   0.43994    0.70149   1.00
H2       0.02177    0.39659    0.71309   1.00
C5       0.13163    0.64181    0.96125   1.00
H2       0.15949    0.63005    0.90463   1.00
H2       0.11207    0.60481    0.91259   1.00
C5       0.36003    0.20090    0.90634   1.00
H2       0.36289    0.24037    0.95687   1.00
H2       0.31563    0.21434    0.95071   1.00
H2       0.22898    0.43865    1.09643   1.00
H2       0.18739    0.41649    1.12342   1.00
C5       0.24083    0.38096    1.12196   1.00
H2       -0.03616   0.46414    0.72086   1.00
H2       -0.00071   0.45241    0.68143   1.00
H2       -0.04874   0.42712    0.68316   1.00
H2       0.14680    0.63065    0.98867   1.00
H2       0.14271    0.67234    0.95411   1.00
H2       0.09879    0.64285    0.96640   1.00
H2       0.37611    0.21788    0.88270   1.00
H2       0.38164    0.18186    0.92296   1.00
H2       0.33681    0.18166    0.89232   1.00
H2       0.27193    0.38723    1.11198   1.00
H2       0.23902    0.38384    1.15504   1.00
H2       0.23234    0.35007    1.11304   1.00
C5       0.79718    0.39848    1.04070   1.00
H2       0.81245    0.37319    1.02740   1.00
H2       0.77590    0.38594    1.06169   1.00
C5       0.82694    0.42439    1.06217   1.00
C5       0.83623    0.40771    1.10284   1.00
H2       0.81515    0.45447    1.06550   1.00
O3       0.64500    0.48261    0.93609   1.00
C4       0.68600    0.41472    0.91468   1.00
C3c      0.70743    0.40368    0.94782   1.00
H1       0.69225    0.39483    0.97401   1.00
C3d      0.70635    0.42562    0.88067   1.00
C3       0.74854    0.40438    0.94795   1.00
O2       0.76748    0.38868    0.97969   1.00
C3       0.74727    0.42707    0.88094   1.00
H1       0.76157    0.43694    0.85462   1.00
C2       0.76939    0.41640    0.91433   1.00
C5       0.64379    0.51061    0.90589   1.00
H2       0.61338    0.51967    0.89873   1.00
H2       0.65766    0.49918    0.87874   1.00
C5       0.66629    0.54639    0.91978   1.00
H2       0.69637    0.53714    0.92798   1.00
H2       0.65198    0.55777    0.94668   1.00
C5       0.66762    0.57801    0.88790   1.00
H2       0.63768    0.58719    0.87938   1.00
H2       0.68311    0.56712    0.86152   1.00
C5       0.68945    0.61423    0.90307   1.00
C5       0.67605    0.40798    0.82409   1.00
C5       0.77570    0.41834    1.00718   1.00
H2       0.65588    0.38769    0.83941   1.00
H2       0.70212    0.39122    0.81411   1.00
H2       0.74800    0.43171    1.01786   1.00
H2       0.79395    0.44232    0.99462   1.00
H2       0.85530    0.42566    1.04608   1.00
H2       0.60747    0.38198    0.78247   1.00
H2       0.65263    0.36836    0.75820   1.00
C2       0.56105    0.41743    0.91387   1.00
C3       0.58097    0.38247    0.90504   1.00
O2       0.56174    0.35211    0.88688   1.00
C3       0.58326    0.45050    0.92473   1.00
H1       0.56885    0.47741    0.93264   1.00
C3a      0.62213    0.38158    0.90624   1.00
H1       0.63702    0.35525    0.89724   1.00
C3b      0.62422    0.44988    0.92468   1.00
C4       0.64400    0.41528    0.91532   1.00
O3       0.68667    0.43956    0.84828   1.00
C5       0.55220    0.32288    0.91426   1.00
H2       0.57891    0.31101    0.92867   1.00
C5       0.53174    0.29029    0.89194   1.00
H2       0.53226    0.33448    0.93720   1.00
H2       0.55432    0.27224    0.87710   1.00
H2       0.51407    0.30418    0.86846   1.00
C5       0.50582    0.26467    0.91820   1.00
H2       0.52324    0.25356    0.94319   1.00
C5       0.48953    0.22966    0.89523   1.00
H2       0.48007    0.28131    0.92939   1.00
C5       0.65517    0.42474    0.78857   1.00
H2       0.67715    0.43950    0.76971   1.00
H2       0.63452    0.44768    0.79878   1.00
C5       0.63300    0.39314    0.76559   1.00
C5       0.61725    0.41033    0.72719   1.00
H2       0.85786    0.38262    1.09985   1.00
C5       0.85412    0.43994    1.12851   1.00
H2       0.80823    0.39659    1.11691   1.00
C5       0.69837    0.64181    0.86875   1.00
H2       0.67051    0.63005    0.92537   1.00
H2       0.71793    0.60481    0.91741   1.00
C5       0.46997    0.20090    0.92366   1.00
H2       0.46711    0.24037    0.87313   1.00
H2       0.51437    0.21434    0.87929   1.00
H2       0.60102    0.43865    0.73357   1.00
H2       0.64261    0.41649    0.70658   1.00
C5       0.58917    0.38096    0.70804   1.00
H2       0.86616    0.46414    1.10914   1.00
H2       0.83071    0.45241    1.14857   1.00
H2       0.87874    0.42712    1.14684   1.00
H2       0.68320    0.63065    0.84133   1.00
H2       0.68729    0.67234    0.87589   1.00
H2       0.73121    0.64285    0.86360   1.00
H2       0.45389    0.21788    0.94730   1.00
H2       0.44836    0.18186    0.90704   1.00
H2       0.49319    0.18166    0.93768   1.00
H2       0.55807    0.38723    0.71802   1.00
H2       0.59098    0.38384    0.67496   1.00
H2       0.59766    0.35007    0.71696   1.00
C5       0.28930    0.03282    0.89848   1.00
H2       0.30260    0.01755    0.87319   1.00
H2       0.26831    0.05410    0.88594   1.00
C5       0.26783    0.00306    0.92439   1.00
C5       0.22716    -0.00623   0.90771   1.00
H2       0.26450    0.01485    0.95447   1.00
O3       0.39391    0.18500    0.98261   1.00
C4       0.41532    0.14400    0.91472   1.00
C3c      0.38218    0.12257    0.90368   1.00
H1       0.35599    0.13775    0.89483   1.00
C3d      0.44933    0.12365    0.92562   1.00
C3       0.38205    0.08146    0.90438   1.00
O2       0.35031    0.06252    0.88868   1.00
C3       0.44906    0.08273    0.92707   1.00
H1       0.47538    0.06843    0.93694   1.00
C2       0.41567    0.06061    0.91640   1.00
C5       0.42411    0.18621    1.01061   1.00
H2       0.43127    0.21662    1.01967   1.00
H2       0.45126    0.17234    0.99918   1.00
C5       0.41022    0.16371    1.04639   1.00
H2       0.40202    0.13363    1.03714   1.00
H2       0.38332    0.17802    1.05777   1.00
C5       0.44210    0.16238    1.07801   1.00
H2       0.45062    0.19232    1.08719   1.00
H2       0.46848    0.14689    1.06712   1.00
C5       0.42693    0.14055    1.11423   1.00
C5       0.50591    0.15395    0.90798   1.00
C5       0.32282    0.05430    0.91834   1.00
H2       0.49059    0.17412    0.88769   1.00
H2       0.51589    0.12788    0.89122   1.00
H2       0.31214    0.08200    0.93171   1.00
H2       0.33538    0.03605    0.94232   1.00
H2       0.28392    -0.02530   0.92566   1.00
H2       0.54753    0.22253    0.88198   1.00
H2       0.57180    0.17737    0.86836   1.00
C2       0.41613    0.26895    0.91743   1.00
C3       0.42496    0.24903    0.88247   1.00
O2       0.44312    0.26826    0.85211   1.00
C3       0.40527    0.24674    0.95050   1.00
H1       0.39736    0.26115    0.97741   1.00
C3a      0.42376    0.20787    0.88158   1.00
H1       0.43276    0.19298    0.85525   1.00
C3b      0.40532    0.20578    0.94988   1.00
C4       0.41468    0.18600    0.91528   1.00
O3       0.48172    0.14333    0.93956   1.00
C5       0.41574    0.27780    0.82288   1.00
H2       0.40133    0.25109    0.81101   1.00
C5       0.43806    0.29826    0.79029   1.00
H2       0.39280    0.29774    0.83448   1.00
H2       0.45290    0.27568    0.77224   1.00
H2       0.46154    0.31593    0.80418   1.00
C5       0.41180    0.32418    0.76467   1.00
H2       0.38681    0.30676    0.75356   1.00
C5       0.43477    0.34047    0.72966   1.00
H2       0.40061    0.34993    0.78131   1.00
C5       0.54143    0.17483    0.92474   1.00
H2       0.56029    0.15285    0.93950   1.00
H2       0.53122    0.19548    0.94768   1.00
C5       0.56441    0.19700    0.89314   1.00
C5       0.60281    0.21275    0.91033   1.00
H2       0.23015    -0.02786   0.88262   1.00
C5       0.20149    -0.02412   0.93994   1.00
H2       0.21309    0.02177    0.89659   1.00
C5       0.46125    0.13163    1.14181   1.00
H2       0.40463    0.15949    1.13005   1.00
H2       0.41259    0.11207    1.10481   1.00
C5       0.40634    0.36003    0.70090   1.00
H2       0.45687    0.36289    0.74037   1.00
H2       0.45071    0.31563    0.71434   1.00
H2       0.59643    0.22898    0.93865   1.00
H2       0.62342    0.18739    0.91649   1.00
C5       0.62196    0.24083    0.88096   1.00
H2       0.22086    -0.03616   0.96414   1.00
H2       0.18143    -0.00071   0.95241   1.00
H2       0.18316    -0.04874   0.92712   1.00
H2       0.48867    0.14680    1.13065   1.00
H2       0.45411    0.14271    1.17234   1.00
H2       0.46640    0.09879    1.14285   1.00
H2       0.38270    0.37611    0.71788   1.00
H2       0.42296    0.38164    0.68186   1.00
H2       0.39232    0.33681    0.68166   1.00
H2       0.61198    0.27193    0.88723   1.00
H2       0.65504    0.23902    0.88384   1.00
H2       0.61304    0.23234    0.85007   1.00
C5       0.39848    0.28930    0.53282   1.00
H2       0.37319    0.30260    0.51755   1.00
H2       0.38594    0.26831    0.55410   1.00
C5       0.42439    0.26783    0.50306   1.00
C5       0.40771    0.22716    0.49377   1.00
H2       0.45447    0.26450    0.51485   1.00
O3       0.48261    0.39391    0.68500   1.00
C4       0.41472    0.41532    0.64400   1.00
C3c      0.40368    0.38218    0.62257   1.00
H1       0.39483    0.35599    0.63775   1.00
C3d      0.42562    0.44933    0.62365   1.00
C3       0.40438    0.38205    0.58146   1.00
O2       0.38868    0.35031    0.56252   1.00
C3       0.42707    0.44906    0.58273   1.00
H1       0.43694    0.47538    0.56843   1.00
C2       0.41640    0.41567    0.56061   1.00
C5       0.51061    0.42411    0.68621   1.00
H2       0.51967    0.43127    0.71662   1.00
H2       0.49918    0.45126    0.67234   1.00
C5       0.54639    0.41022    0.66371   1.00
H2       0.53714    0.40202    0.63363   1.00
H2       0.55777    0.38332    0.67802   1.00
C5       0.57801    0.44210    0.66238   1.00
H2       0.58719    0.45062    0.69232   1.00
H2       0.56712    0.46848    0.64689   1.00
C5       0.61423    0.42693    0.64055   1.00
C5       0.40798    0.50591    0.65395   1.00
C5       0.41834    0.32282    0.55430   1.00
H2       0.38769    0.49059    0.67412   1.00
H2       0.39122    0.51589    0.62788   1.00
H2       0.43171    0.31214    0.58200   1.00
H2       0.44232    0.33538    0.53605   1.00
H2       0.42566    0.28392    0.47470   1.00
H2       0.38198    0.54753    0.72253   1.00
H2       0.36836    0.57180    0.67737   1.00
C2       0.41743    0.41613    0.76895   1.00
C3       0.38247    0.42496    0.74903   1.00
O2       0.35211    0.44312    0.76826   1.00
C3       0.45050    0.40527    0.74674   1.00
H1       0.47741    0.39736    0.76115   1.00
C3a      0.38158    0.42376    0.70787   1.00
H1       0.35525    0.43276    0.69298   1.00
C3b      0.44988    0.40532    0.70578   1.00
C4       0.41528    0.41468    0.68600   1.00
O3       0.43956    0.48172    0.64333   1.00
C5       0.32288    0.41574    0.77780   1.00
H2       0.31101    0.40133    0.75109   1.00
C5       0.29029    0.43806    0.79826   1.00
H2       0.33448    0.39280    0.79774   1.00
H2       0.27224    0.45290    0.77568   1.00
H2       0.30418    0.46154    0.81593   1.00
C5       0.26467    0.41180    0.82418   1.00
H2       0.25356    0.38681    0.80676   1.00
C5       0.22966    0.43477    0.84047   1.00
H2       0.28131    0.40061    0.84993   1.00
C5       0.42474    0.54143    0.67483   1.00
H2       0.43950    0.56029    0.65285   1.00
H2       0.44768    0.53122    0.69548   1.00
C5       0.39314    0.56441    0.69700   1.00
C5       0.41033    0.60281    0.71275   1.00
H2       0.38262    0.23015    0.47214   1.00
C5       0.43994    0.20149    0.47588   1.00
H2       0.39659    0.21309    0.52177   1.00
C5       0.64181    0.46125    0.63163   1.00
H2       0.63005    0.40463    0.65949   1.00
H2       0.60481    0.41259    0.61207   1.00
C5       0.20090    0.40634    0.86003   1.00
H2       0.24037    0.45687    0.86289   1.00
H2       0.21434    0.45071    0.81563   1.00
H2       0.43865    0.59643    0.72898   1.00
H2       0.41649    0.62342    0.68739   1.00
C5       0.38096    0.62196    0.74083   1.00
H2       0.46414    0.22086    0.46384   1.00
H2       0.45241    0.18143    0.49929   1.00
H2       0.42712    0.18316    0.45126   1.00
H2       0.63065    0.48867    0.64680   1.00
H2       0.67234    0.45411    0.64271   1.00
H2       0.64285    0.46640    0.59879   1.00
H2       0.21788    0.38270    0.87611   1.00
H2       0.18186    0.42296    0.88164   1.00
H2       0.18166    0.39232    0.83681   1.00
H2       0.38723    0.61198    0.77193   1.00
H2       0.38384    0.65504    0.73902   1.00
H2       0.35007    0.61304    0.73234   1.00
C5       0.39848    1.04070    0.79718   1.00
H2       0.37319    1.02740    0.81245   1.00
H2       0.38594    1.06169    0.77590   1.00
C5       0.42439    1.06217    0.82694   1.00
C5       0.40771    1.10284    0.83623   1.00
H2       0.45447    1.06550    0.81515   1.00
O3       0.48261    0.93609    0.64500   1.00
C4       0.41472    0.91468    0.68600   1.00
C3c      0.40368    0.94782    0.70743   1.00
H1       0.39483    0.97401    0.69225   1.00
C3d      0.42562    0.88067    0.70635   1.00
C3       0.40438    0.94795    0.74854   1.00
O2       0.38868    0.97969    0.76748   1.00
C3       0.42707    0.88094    0.74727   1.00
H1       0.43694    0.85462    0.76157   1.00
C2       0.41640    0.91433    0.76939   1.00
C5       0.51061    0.90589    0.64379   1.00
H2       0.51967    0.89873    0.61338   1.00
H2       0.49918    0.87874    0.65766   1.00
C5       0.54639    0.91978    0.66629   1.00
H2       0.53714    0.92798    0.69637   1.00
H2       0.55777    0.94668    0.65198   1.00
C5       0.57801    0.88790    0.66762   1.00
H2       0.58719    0.87938    0.63768   1.00
H2       0.56712    0.86152    0.68311   1.00
C5       0.61423    0.90307    0.68945   1.00
C5       0.40798    0.82409    0.67605   1.00
C5       0.41834    1.00718    0.77570   1.00
H2       0.38769    0.83941    0.65588   1.00
H2       0.39122    0.81411    0.70212   1.00
H2       0.43171    1.01786    0.74800   1.00
H2       0.44232    0.99462    0.79395   1.00
H2       0.42566    1.04608    0.85530   1.00
H2       0.38198    0.78247    0.60747   1.00
H2       0.36836    0.75820    0.65263   1.00
C2       0.41743    0.91387    0.56105   1.00
C3       0.38247    0.90504    0.58097   1.00
O2       0.35211    0.88688    0.56174   1.00
C3       0.45050    0.92473    0.58326   1.00
H1       0.47741    0.93264    0.56885   1.00
C3a      0.38158    0.90624    0.62213   1.00
H1       0.35525    0.89724    0.63702   1.00
C3b      0.44988    0.92468    0.62422   1.00
C4       0.41528    0.91532    0.64400   1.00
O3       0.43956    0.84828    0.68667   1.00
C5       0.32288    0.91426    0.55220   1.00
H2       0.31101    0.92867    0.57891   1.00
C5       0.29029    0.89194    0.53174   1.00
H2       0.33448    0.93720    0.53226   1.00
H2       0.27224    0.87710    0.55432   1.00
H2       0.30418    0.86846    0.51407   1.00
C5       0.26467    0.91820    0.50582   1.00
H2       0.25356    0.94319    0.52324   1.00
C5       0.22966    0.89523    0.48953   1.00
H2       0.28131    0.92939    0.48007   1.00
C5       0.42474    0.78857    0.65517   1.00
H2       0.43950    0.76971    0.67715   1.00
H2       0.44768    0.79878    0.63452   1.00
C5       0.39314    0.76559    0.63300   1.00
C5       0.41033    0.72719    0.61725   1.00
H2       0.38262    1.09985    0.85786   1.00
C5       0.43994    1.12851    0.85412   1.00
H2       0.39659    1.11691    0.80823   1.00
C5       0.64181    0.86875    0.69837   1.00
H2       0.63005    0.92537    0.67051   1.00
H2       0.60481    0.91741    0.71793   1.00
C5       0.20090    0.92366    0.46997   1.00
H2       0.24037    0.87313    0.46711   1.00
H2       0.21434    0.87929    0.51437   1.00
H2       0.43865    0.73357    0.60102   1.00
H2       0.41649    0.70658    0.64261   1.00
C5       0.38096    0.70804    0.58917   1.00
H2       0.46414    1.10914    0.86616   1.00
H2       0.45241    1.14857    0.83071   1.00
H2       0.42712    1.14684    0.87874   1.00
H2       0.63065    0.84133    0.68320   1.00
H2       0.67234    0.87589    0.68729   1.00
H2       0.64285    0.86360    0.73121   1.00
H2       0.21788    0.94730    0.45389   1.00
H2       0.18186    0.90704    0.44836   1.00
H2       0.18166    0.93768    0.49319   1.00
H2       0.38723    0.71802    0.55807   1.00
H2       0.38384    0.67496    0.59098   1.00
H2       0.35007    0.71696    0.59766   1.00
C5       0.54070    1.29718    0.39848   1.00
H2       0.52740    1.31245    0.37319   1.00
H2       0.56169    1.27590    0.38594   1.00
C5       0.56217    1.32694    0.42439   1.00
C5       0.60284    1.33623    0.40771   1.00
H2       0.56550    1.31515    0.45447   1.00
O3       0.43609    1.14500    0.48261   1.00
C4       0.41468    1.18600    0.41472   1.00
C3c      0.44782    1.20743    0.40368   1.00
H1       0.47401    1.19225    0.39483   1.00
C3d      0.38067    1.20635    0.42562   1.00
C3       0.44795    1.24854    0.40438   1.00
O2       0.47969    1.26748    0.38868   1.00
C3       0.38094    1.24727    0.42707   1.00
H1       0.35462    1.26157    0.43694   1.00
C2       0.41433    1.26939    0.41640   1.00
C5       0.40589    1.14379    0.51061   1.00
H2       0.39873    1.11338    0.51967   1.00
H2       0.37874    1.15766    0.49918   1.00
C5       0.41978    1.16629    0.54639   1.00
H2       0.42798    1.19637    0.53714   1.00
H2       0.44668    1.15198    0.55777   1.00
C5       0.38790    1.16762    0.57801   1.00
H2       0.37938    1.13768    0.58719   1.00
H2       0.36152    1.18311    0.56712   1.00
C5       0.40307    1.18945    0.61423   1.00
C5       0.32409    1.17605    0.40798   1.00
C5       0.50718    1.27570    0.41834   1.00
H2       0.33941    1.15588    0.38769   1.00
H2       0.31411    1.20212    0.39122   1.00
H2       0.51786    1.24800    0.43171   1.00
H2       0.49462    1.29395    0.44232   1.00
H2       0.54608    1.35530    0.42566   1.00
H2       0.28247    1.10747    0.38198   1.00
H2       0.25820    1.15263    0.36836   1.00
C2       0.41387    1.06105    0.41743   1.00
C3       0.40504    1.08097    0.38247   1.00
O2       0.38688    1.06174    0.35211   1.00
C3       0.42473    1.08326    0.45050   1.00
H1       0.43264    1.06885    0.47741   1.00
C3a      0.40624    1.12213    0.38158   1.00
H1       0.39724    1.13702    0.35525   1.00
C3b      0.42468    1.12422    0.44988   1.00
C4       0.41532    1.14400    0.41528   1.00
O3       0.34828    1.18667    0.43956   1.00
C5       0.41426    1.05220    0.32288   1.00
H2       0.42867    1.07891    0.31101   1.00
C5       0.39194    1.03174    0.29029   1.00
H2       0.43720    1.03226    0.33448   1.00
H2       0.37710    1.05432    0.27224   1.00
H2       0.36846    1.01407    0.30418   1.00
C5       0.41820    1.00582    0.26467   1.00
H2       0.44319    1.02324    0.25356   1.00
C5       0.39523    0.98953    0.22966   1.00
H2       0.42939    0.98007    0.28131   1.00
C5       0.28857    1.15517    0.42474   1.00
H2       0.26971    1.17715    0.43950   1.00
H2       0.29878    1.13452    0.44768   1.00
C5       0.26559    1.13300    0.39314   1.00
C5       0.22719    1.11725    0.41033   1.00
H2       0.59985    1.35786    0.38262   1.00
C5       0.62851    1.35412    0.43994   1.00
H2       0.61691    1.30823    0.39659   1.00
C5       0.36875    1.19837    0.64181   1.00
H2       0.42537    1.17051    0.63005   1.00
H2       0.41741    1.21793    0.60481   1.00
C5       0.42366    0.96997    0.20090   1.00
H2       0.37313    0.96711    0.24037   1.00
H2       0.37929    1.01437    0.21434   1.00
H2       0.23357    1.10102    0.43865   1.00
H2       0.20658    1.14261    0.41649   1.00
C5       0.20804    1.08917    0.38096   1.00
H2       0.60914    1.36616    0.46414   1.00
H2       0.64857    1.33071    0.45241   1.00
H2       0.64684    1.37874    0.42712   1.00
H2       0.34133    1.18320    0.63065   1.00
H2       0.37589    1.18729    0.67234   1.00
H2       0.36360    1.23121    0.64285   1.00
H2       0.44730    0.95389    0.21788   1.00
H2       0.40704    0.94836    0.18186   1.00
H2       0.43768    0.99319    0.18166   1.00
H2       0.21802    1.05807    0.38723   1.00
H2       0.17496    1.09098    0.38384   1.00
H2       0.21696    1.09766    0.35007   1.00
C5       0.03282    0.89848    0.28930   1.00
H2       0.01755    0.87319    0.30260   1.00
H2       0.05410    0.88594    0.26831   1.00
C5       0.00306    0.92439    0.26783   1.00
C5       -0.00623   0.90771    0.22716   1.00
H2       0.01485    0.95447    0.26450   1.00
O3       0.18500    0.98261    0.39391   1.00
C4       0.14400    0.91472    0.41532   1.00
C3c      0.12257    0.90368    0.38218   1.00
H1       0.13775    0.89483    0.35599   1.00
C3d      0.12365    0.92562    0.44933   1.00
C3       0.08146    0.90438    0.38205   1.00
O2       0.06252    0.88868    0.35031   1.00
C3       0.08273    0.92707    0.44906   1.00
H1       0.06843    0.93694    0.47538   1.00
C2       0.06061    0.91640    0.41567   1.00
C5       0.18621    1.01061    0.42411   1.00
H2       0.21662    1.01967    0.43127   1.00
H2       0.17234    0.99918    0.45126   1.00
C5       0.16371    1.04639    0.41022   1.00
H2       0.13363    1.03714    0.40202   1.00
H2       0.17802    1.05777    0.38332   1.00
C5       0.16238    1.07801    0.44210   1.00
H2       0.19232    1.08719    0.45062   1.00
H2       0.14689    1.06712    0.46848   1.00
C5       0.14055    1.11423    0.42693   1.00
C5       0.15395    0.90798    0.50591   1.00
C5       0.05430    0.91834    0.32282   1.00
H2       0.17412    0.88769    0.49059   1.00
H2       0.12788    0.89122    0.51589   1.00
H2       0.08200    0.93171    0.31214   1.00
H2       0.03605    0.94232    0.33538   1.00
H2       -0.02530   0.92566    0.28392   1.00
H2       0.22253    0.88198    0.54753   1.00
H2       0.17737    0.86836    0.57180   1.00
C2       0.26895    0.91743    0.41613   1.00
C3       0.24903    0.88247    0.42496   1.00
O2       0.26826    0.85211    0.44312   1.00
C3       0.24674    0.95050    0.40527   1.00
H1       0.26115    0.97741    0.39736   1.00
C3a      0.20787    0.88158    0.42376   1.00
H1       0.19298    0.85525    0.43276   1.00
C3b      0.20578    0.94988    0.40532   1.00
C4       0.18600    0.91528    0.41468   1.00
O3       0.14333    0.93956    0.48172   1.00
C5       0.27780    0.82288    0.41574   1.00
H2       0.25109    0.81101    0.40133   1.00
C5       0.29826    0.79029    0.43806   1.00
H2       0.29774    0.83448    0.39280   1.00
H2       0.27568    0.77224    0.45290   1.00
H2       0.31593    0.80418    0.46154   1.00
C5       0.32418    0.76467    0.41180   1.00
H2       0.30676    0.75356    0.38681   1.00
C5       0.34047    0.72966    0.43477   1.00
H2       0.34993    0.78131    0.40061   1.00
C5       0.17483    0.92474    0.54143   1.00
H2       0.15285    0.93950    0.56029   1.00
H2       0.19548    0.94768    0.53122   1.00
C5       0.19700    0.89314    0.56441   1.00
C5       0.21275    0.91033    0.60281   1.00
H2       -0.02786   0.88262    0.23015   1.00
C5       -0.02412   0.93994    0.20149   1.00
H2       0.02177    0.89659    0.21309   1.00
C5       0.13163    1.14181    0.46125   1.00
H2       0.15949    1.13005    0.40463   1.00
H2       0.11207    1.10481    0.41259   1.00
C5       0.36003    0.70090    0.40634   1.00
H2       0.36289    0.74037    0.45687   1.00
H2       0.31563    0.71434    0.45071   1.00
H2       0.22898    0.93865    0.59643   1.00
H2       0.18739    0.91649    0.62342   1.00
C5       0.24083    0.88096    0.62196   1.00
H2       -0.03616   0.96414    0.22086   1.00
H2       -0.00071   0.95241    0.18143   1.00
H2       -0.04874   0.92712    0.18316   1.00
H2       0.14680    1.13065    0.48867   1.00
H2       0.14271    1.17234    0.45411   1.00
H2       0.09879    1.14285    0.46640   1.00
H2       0.37611    0.71788    0.38270   1.00
H2       0.38164    0.68186    0.42296   1.00
H2       0.33681    0.68166    0.39232   1.00
H2       0.27193    0.88723    0.61198   1.00
H2       0.23902    0.88384    0.65504   1.00
H2       0.23234    0.85007    0.61304   1.00
C5       0.79718    0.89848    0.54070   1.00
H2       0.81245    0.87319    0.52740   1.00
H2       0.77590    0.88594    0.56169   1.00
C5       0.82694    0.92439    0.56217   1.00
C5       0.83623    0.90771    0.60284   1.00
H2       0.81515    0.95447    0.56550   1.00
O3       0.64500    0.98261    0.43609   1.00
C4       0.68600    0.91472    0.41468   1.00
C3c      0.70743    0.90368    0.44782   1.00
H1       0.69225    0.89483    0.47401   1.00
C3d      0.70635    0.92562    0.38067   1.00
C3       0.74854    0.90438    0.44795   1.00
O2       0.76748    0.88868    0.47969   1.00
C3       0.74727    0.92707    0.38094   1.00
H1       0.76157    0.93694    0.35462   1.00
C2       0.76939    0.91640    0.41433   1.00
C5       0.64379    1.01061    0.40589   1.00
H2       0.61338    1.01967    0.39873   1.00
H2       0.65766    0.99918    0.37874   1.00
C5       0.66629    1.04639    0.41978   1.00
H2       0.69637    1.03714    0.42798   1.00
H2       0.65198    1.05777    0.44668   1.00
C5       0.66762    1.07801    0.38790   1.00
H2       0.63768    1.08719    0.37938   1.00
H2       0.68311    1.06712    0.36152   1.00
C5       0.68945    1.11423    0.40307   1.00
C5       0.67605    0.90798    0.32409   1.00
C5       0.77570    0.91834    0.50718   1.00
H2       0.65588    0.88769    0.33941   1.00
H2       0.70212    0.89122    0.31411   1.00
H2       0.74800    0.93171    0.51786   1.00
H2       0.79395    0.94232    0.49462   1.00
H2       0.85530    0.92566    0.54608   1.00
H2       0.60747    0.88198    0.28247   1.00
H2       0.65263    0.86836    0.25820   1.00
C2       0.56105    0.91743    0.41387   1.00
C3       0.58097    0.88247    0.40504   1.00
O2       0.56174    0.85211    0.38688   1.00
C3       0.58326    0.95050    0.42473   1.00
H1       0.56885    0.97741    0.43264   1.00
C3a      0.62213    0.88158    0.40624   1.00
H1       0.63702    0.85525    0.39724   1.00
C3b      0.62422    0.94988    0.42468   1.00
C4       0.64400    0.91528    0.41532   1.00
O3       0.68667    0.93956    0.34828   1.00
C5       0.55220    0.82288    0.41426   1.00
H2       0.57891    0.81101    0.42867   1.00
C5       0.53174    0.79029    0.39194   1.00
H2       0.53226    0.83448    0.43720   1.00
H2       0.55432    0.77224    0.37710   1.00
H2       0.51407    0.80418    0.36846   1.00
C5       0.50582    0.76467    0.41820   1.00
H2       0.52324    0.75356    0.44319   1.00
C5       0.48953    0.72966    0.39523   1.00
H2       0.48007    0.78131    0.42939   1.00
C5       0.65517    0.92474    0.28857   1.00
H2       0.67715    0.93950    0.26971   1.00
H2       0.63452    0.94768    0.29878   1.00
C5       0.63300    0.89314    0.26559   1.00
C5       0.61725    0.91033    0.22719   1.00
H2       0.85786    0.88262    0.59985   1.00
C5       0.85412    0.93994    0.62851   1.00
H2       0.80823    0.89659    0.61691   1.00
C5       0.69837    1.14181    0.36875   1.00
H2       0.67051    1.13005    0.42537   1.00
H2       0.71793    1.10481    0.41741   1.00
C5       0.46997    0.70090    0.42366   1.00
H2       0.46711    0.74037    0.37313   1.00
H2       0.51437    0.71434    0.37929   1.00
H2       0.60102    0.93865    0.23357   1.00
H2       0.64261    0.91649    0.20658   1.00
C5       0.58917    0.88096    0.20804   1.00
H2       0.86616    0.96414    0.60914   1.00
H2       0.83071    0.95241    0.64857   1.00
H2       0.87874    0.92712    0.64684   1.00
H2       0.68320    1.13065    0.34133   1.00
H2       0.68729    1.17234    0.37589   1.00
H2       0.73121    1.14285    0.36360   1.00
H2       0.45389    0.71788    0.44730   1.00
H2       0.44836    0.68186    0.40704   1.00
H2       0.49319    0.68166    0.43768   1.00
H2       0.55807    0.88723    0.21802   1.00
H2       0.59098    0.88384    0.17496   1.00
H2       0.59766    0.85007    0.21696   1.00
C5       0.28930    0.53282    0.39848   1.00
H2       0.30260    0.51755    0.37319   1.00
H2       0.26831    0.55410    0.38594   1.00
C5       0.26783    0.50306    0.42439   1.00
C5       0.22716    0.49377    0.40771   1.00
H2       0.26450    0.51485    0.45447   1.00
O3       0.39391    0.68500    0.48261   1.00
C4       0.41532    0.64400    0.41472   1.00
C3c      0.38218    0.62257    0.40368   1.00
H1       0.35599    0.63775    0.39483   1.00
C3d      0.44933    0.62365    0.42562   1.00
C3       0.38205    0.58146    0.40438   1.00
O2       0.35031    0.56252    0.38868   1.00
C3       0.44906    0.58273    0.42707   1.00
H1       0.47538    0.56843    0.43694   1.00
C2       0.41567    0.56061    0.41640   1.00
C5       0.42411    0.68621    0.51061   1.00
H2       0.43127    0.71662    0.51967   1.00
H2       0.45126    0.67234    0.49918   1.00
C5       0.41022    0.66371    0.54639   1.00
H2       0.40202    0.63363    0.53714   1.00
H2       0.38332    0.67802    0.55777   1.00
C5       0.44210    0.66238    0.57801   1.00
H2       0.45062    0.69232    0.58719   1.00
H2       0.46848    0.64689    0.56712   1.00
C5       0.42693    0.64055    0.61423   1.00
C5       0.50591    0.65395    0.40798   1.00
C5       0.32282    0.55430    0.41834   1.00
H2       0.49059    0.67412    0.38769   1.00
H2       0.51589    0.62788    0.39122   1.00
H2       0.31214    0.58200    0.43171   1.00
H2       0.33538    0.53605    0.44232   1.00
H2       0.28392    0.47470    0.42566   1.00
H2       0.54753    0.72253    0.38198   1.00
H2       0.57180    0.67737    0.36836   1.00
C2       0.41613    0.76895    0.41743   1.00
C3       0.42496    0.74903    0.38247   1.00
O2       0.44312    0.76826    0.35211   1.00
C3       0.40527    0.74674    0.45050   1.00
H1       0.39736    0.76115    0.47741   1.00
C3a      0.42376    0.70787    0.38158   1.00
H1       0.43276    0.69298    0.35525   1.00
C3b      0.40532    0.70578    0.44988   1.00
C4       0.41468    0.68600    0.41528   1.00
O3       0.48172    0.64333    0.43956   1.00
C5       0.41574    0.77780    0.32288   1.00
H2       0.40133    0.75109    0.31101   1.00
C5       0.43806    0.79826    0.29029   1.00
H2       0.39280    0.79774    0.33448   1.00
H2       0.45290    0.77568    0.27224   1.00
H2       0.46154    0.81593    0.30418   1.00
C5       0.41180    0.82418    0.26467   1.00
H2       0.38681    0.80676    0.25356   1.00
C5       0.43477    0.84047    0.22966   1.00
H2       0.40061    0.84993    0.28131   1.00
C5       0.54143    0.67483    0.42474   1.00
H2       0.56029    0.65285    0.43950   1.00
H2       0.53122    0.69548    0.44768   1.00
C5       0.56441    0.69700    0.39314   1.00
C5       0.60281    0.71275    0.41033   1.00
H2       0.23015    0.47214    0.38262   1.00
C5       0.20149    0.47588    0.43994   1.00
H2       0.21309    0.52177    0.39659   1.00
C5       0.46125    0.63163    0.64181   1.00
H2       0.40463    0.65949    0.63005   1.00
H2       0.41259    0.61207    0.60481   1.00
C5       0.40634    0.86003    0.20090   1.00
H2       0.45687    0.86289    0.24037   1.00
H2       0.45071    0.81563    0.21434   1.00
H2       0.59643    0.72898    0.43865   1.00
H2       0.62342    0.68739    0.41649   1.00
C5       0.62196    0.74083    0.38096   1.00
H2       0.22086    0.46384    0.46414   1.00
H2       0.18143    0.49929    0.45241   1.00
H2       0.18316    0.45126    0.42712   1.00
H2       0.48867    0.64680    0.63065   1.00
H2       0.45411    0.64271    0.67234   1.00
H2       0.46640    0.59879    0.64285   1.00
H2       0.38270    0.87611    0.21788   1.00
H2       0.42296    0.88164    0.18186   1.00
H2       0.39232    0.83681    0.18166   1.00
H2       0.61198    0.77193    0.38723   1.00
H2       0.65504    0.73902    0.38384   1.00
H2       0.61304    0.73234    0.35007   1.00
C5       0.39848    0.78930    0.03282   1.00
H2       0.37319    0.80260    0.01755   1.00
H2       0.38594    0.76831    0.05410   1.00
C5       0.42439    0.76783    0.00306   1.00
C5       0.40771    0.72716    -0.00623   1.00
H2       0.45447    0.76450    0.01485   1.00
O3       0.48261    0.89391    0.18500   1.00
C4       0.41472    0.91532    0.14400   1.00
C3c      0.40368    0.88218    0.12257   1.00
H1       0.39483    0.85599    0.13775   1.00
C3d      0.42562    0.94933    0.12365   1.00
C3       0.40438    0.88205    0.08146   1.00
O2       0.38868    0.85031    0.06252   1.00
C3       0.42707    0.94906    0.08273   1.00
H1       0.43694    0.97538    0.06843   1.00
C2       0.41640    0.91567    0.06061   1.00
C5       0.51061    0.92411    0.18621   1.00
H2       0.51967    0.93127    0.21662   1.00
H2       0.49918    0.95126    0.17234   1.00
C5       0.54639    0.91022    0.16371   1.00
H2       0.53714    0.90202    0.13363   1.00
H2       0.55777    0.88332    0.17802   1.00
C5       0.57801    0.94210    0.16238   1.00
H2       0.58719    0.95062    0.19232   1.00
H2       0.56712    0.96848    0.14689   1.00
C5       0.61423    0.92693    0.14055   1.00
C5       0.40798    1.00591    0.15395   1.00
C5       0.41834    0.82282    0.05430   1.00
H2       0.38769    0.99059    0.17412   1.00
H2       0.39122    1.01589    0.12788   1.00
H2       0.43171    0.81214    0.08200   1.00
H2       0.44232    0.83538    0.03605   1.00
H2       0.42566    0.78392    -0.02530   1.00
H2       0.38198    1.04753    0.22253   1.00
H2       0.36836    1.07180    0.17737   1.00
C2       0.41743    0.91613    0.26895   1.00
C3       0.38247    0.92496    0.24903   1.00
O2       0.35211    0.94312    0.26826   1.00
C3       0.45050    0.90527    0.24674   1.00
H1       0.47741    0.89736    0.26115   1.00
C3a      0.38158    0.92376    0.20787   1.00
H1       0.35525    0.93276    0.19298   1.00
C3b      0.44988    0.90532    0.20578   1.00
C4       0.41528    0.91468    0.18600   1.00
O3       0.43956    0.98172    0.14333   1.00
C5       0.32288    0.91574    0.27780   1.00
H2       0.31101    0.90133    0.25109   1.00
C5       0.29029    0.93806    0.29826   1.00
H2       0.33448    0.89280    0.29774   1.00
H2       0.27224    0.95290    0.27568   1.00
H2       0.30418    0.96154    0.31593   1.00
C5       0.26467    0.91180    0.32418   1.00
H2       0.25356    0.88681    0.30676   1.00
C5       0.22966    0.93477    0.34047   1.00
H2       0.28131    0.90061    0.34993   1.00
C5       0.42474    1.04143    0.17483   1.00
H2       0.43950    1.06029    0.15285   1.00
H2       0.44768    1.03122    0.19548   1.00
C5       0.39314    1.06441    0.19700   1.00
C5       0.41033    1.10281    0.21275   1.00
H2       0.38262    0.73015    -0.02786   1.00
C5       0.43994    0.70149    -0.02412   1.00
H2       0.39659    0.71309    0.02177   1.00
C5       0.64181    0.96125    0.13163   1.00
H2       0.63005    0.90463    0.15949   1.00
H2       0.60481    0.91259    0.11207   1.00
C5       0.20090    0.90634    0.36003   1.00
H2       0.24037    0.95687    0.36289   1.00
H2       0.21434    0.95071    0.31563   1.00
H2       0.43865    1.09643    0.22898   1.00
H2       0.41649    1.12342    0.18739   1.00
C5       0.38096    1.12196    0.24083   1.00
H2       0.46414    0.72086    -0.03616   1.00
H2       0.45241    0.68143    -0.00071   1.00
H2       0.42712    0.68316    -0.04874   1.00
H2       0.63065    0.98867    0.14680   1.00
H2       0.67234    0.95411    0.14271   1.00
H2       0.64285    0.96640    0.09879   1.00
H2       0.21788    0.88270    0.37611   1.00
H2       0.18186    0.92296    0.38164   1.00
H2       0.18166    0.89232    0.33681   1.00
H2       0.38723    1.11198    0.27193   1.00
H2       0.38384    1.15504    0.23902   1.00
H2       0.35007    1.11304    0.23234   1.00
C5       0.89848    0.54070    0.79718   1.00
H2       0.87319    0.52740    0.81245   1.00
H2       0.88594    0.56169    0.77590   1.00
C5       0.92439    0.56217    0.82694   1.00
C5       0.90771    0.60284    0.83623   1.00
H2       0.95447    0.56550    0.81515   1.00
O3       0.98261    0.43609    0.64500   1.00
C4       0.91472    0.41468    0.68600   1.00
C3c      0.90368    0.44782    0.70743   1.00
H1       0.89483    0.47401    0.69225   1.00
C3d      0.92562    0.38067    0.70635   1.00
C3       0.90438    0.44795    0.74854   1.00
O2       0.88868    0.47969    0.76748   1.00
C3       0.92707    0.38094    0.74727   1.00
H1       0.93694    0.35462    0.76157   1.00
C2       0.91640    0.41433    0.76939   1.00
C5       1.01061    0.40589    0.64379   1.00
H2       1.01967    0.39873    0.61338   1.00
H2       0.99918    0.37874    0.65766   1.00
C5       1.04639    0.41978    0.66629   1.00
H2       1.03714    0.42798    0.69637   1.00
H2       1.05777    0.44668    0.65198   1.00
C5       1.07801    0.38790    0.66762   1.00
H2       1.08719    0.37938    0.63768   1.00
H2       1.06712    0.36152    0.68311   1.00
C5       1.11423    0.40307    0.68945   1.00
C5       0.90798    0.32409    0.67605   1.00
C5       0.91834    0.50718    0.77570   1.00
H2       0.88769    0.33941    0.65588   1.00
H2       0.89122    0.31411    0.70212   1.00
H2       0.93171    0.51786    0.74800   1.00
H2       0.94232    0.49462    0.79395   1.00
H2       0.92566    0.54608    0.85530   1.00
H2       0.88198    0.28247    0.60747   1.00
H2       0.86836    0.25820    0.65263   1.00
C2       0.91743    0.41387    0.56105   1.00
C3       0.88247    0.40504    0.58097   1.00
O2       0.85211    0.38688    0.56174   1.00
C3       0.95050    0.42473    0.58326   1.00
H1       0.97741    0.43264    0.56885   1.00
C3a      0.88158    0.40624    0.62213   1.00
H1       0.85525    0.39724    0.63702   1.00
C3b      0.94988    0.42468    0.62422   1.00
C4       0.91528    0.41532    0.64400   1.00
O3       0.93956    0.34828    0.68667   1.00
C5       0.82288    0.41426    0.55220   1.00
H2       0.81101    0.42867    0.57891   1.00
C5       0.79029    0.39194    0.53174   1.00
H2       0.83448    0.43720    0.53226   1.00
H2       0.77224    0.37710    0.55432   1.00
H2       0.80418    0.36846    0.51407   1.00
C5       0.76467    0.41820    0.50582   1.00
H2       0.75356    0.44319    0.52324   1.00
C5       0.72966    0.39523    0.48953   1.00
H2       0.78131    0.42939    0.48007   1.00
C5       0.92474    0.28857    0.65517   1.00
H2       0.93950    0.26971    0.67715   1.00
H2       0.94768    0.29878    0.63452   1.00
C5       0.89314    0.26559    0.63300   1.00
C5       0.91033    0.22719    0.61725   1.00
H2       0.88262    0.59985    0.85786   1.00
C5       0.93994    0.62851    0.85412   1.00
H2       0.89659    0.61691    0.80823   1.00
C5       1.14181    0.36875    0.69837   1.00
H2       1.13005    0.42537    0.67051   1.00
H2       1.10481    0.41741    0.71793   1.00
C5       0.70090    0.42366    0.46997   1.00
H2       0.74037    0.37313    0.46711   1.00
H2       0.71434    0.37929    0.51437   1.00
H2       0.93865    0.23357    0.60102   1.00
H2       0.91649    0.20658    0.64261   1.00
C5       0.88096    0.20804    0.58917   1.00
H2       0.96414    0.60914    0.86616   1.00
H2       0.95241    0.64857    0.83071   1.00
H2       0.92712    0.64684    0.87874   1.00
H2       1.13065    0.34133    0.68320   1.00
H2       1.17234    0.37589    0.68729   1.00
H2       1.14285    0.36360    0.73121   1.00
H2       0.71788    0.44730    0.45389   1.00
H2       0.68186    0.40704    0.44836   1.00
H2       0.68166    0.43768    0.49319   1.00
H2       0.88723    0.21802    0.55807   1.00
H2       0.88384    0.17496    0.59098   1.00
H2       0.85007    0.21696    0.59766   1.00
C5       1.04070    0.79718    0.39848   1.00
H2       1.02740    0.81245    0.37319   1.00
H2       1.06169    0.77590    0.38594   1.00
C5       1.06217    0.82694    0.42439   1.00
C5       1.10284    0.83623    0.40771   1.00
H2       1.06550    0.81515    0.45447   1.00
O3       0.93609    0.64500    0.48261   1.00
C4       0.91468    0.68600    0.41472   1.00
C3c      0.94782    0.70743    0.40368   1.00
H1       0.97401    0.69225    0.39483   1.00
C3d      0.88067    0.70635    0.42562   1.00
C3       0.94795    0.74854    0.40438   1.00
O2       0.97969    0.76748    0.38868   1.00
C3       0.88094    0.74727    0.42707   1.00
H1       0.85462    0.76157    0.43694   1.00
C2       0.91433    0.76939    0.41640   1.00
C5       0.90589    0.64379    0.51061   1.00
H2       0.89873    0.61338    0.51967   1.00
H2       0.87874    0.65766    0.49918   1.00
C5       0.91978    0.66629    0.54639   1.00
H2       0.92798    0.69637    0.53714   1.00
H2       0.94668    0.65198    0.55777   1.00
C5       0.88790    0.66762    0.57801   1.00
H2       0.87938    0.63768    0.58719   1.00
H2       0.86152    0.68311    0.56712   1.00
C5       0.90307    0.68945    0.61423   1.00
C5       0.82409    0.67605    0.40798   1.00
C5       1.00718    0.77570    0.41834   1.00
H2       0.83941    0.65588    0.38769   1.00
H2       0.81411    0.70212    0.39122   1.00
H2       1.01786    0.74800    0.43171   1.00
H2       0.99462    0.79395    0.44232   1.00
H2       1.04608    0.85530    0.42566   1.00
H2       0.78247    0.60747    0.38198   1.00
H2       0.75820    0.65263    0.36836   1.00
C2       0.91387    0.56105    0.41743   1.00
C3       0.90504    0.58097    0.38247   1.00
O2       0.88688    0.56174    0.35211   1.00
C3       0.92473    0.58326    0.45050   1.00
H1       0.93264    0.56885    0.47741   1.00
C3a      0.90624    0.62213    0.38158   1.00
H1       0.89724    0.63702    0.35525   1.00
C3b      0.92468    0.62422    0.44988   1.00
C4       0.91532    0.64400    0.41528   1.00
O3       0.84828    0.68667    0.43956   1.00
C5       0.91426    0.55220    0.32288   1.00
H2       0.92867    0.57891    0.31101   1.00
C5       0.89194    0.53174    0.29029   1.00
H2       0.93720    0.53226    0.33448   1.00
H2       0.87710    0.55432    0.27224   1.00
H2       0.86846    0.51407    0.30418   1.00
C5       0.91820    0.50582    0.26467   1.00
H2       0.94319    0.52324    0.25356   1.00
C5       0.89523    0.48953    0.22966   1.00
H2       0.92939    0.48007    0.28131   1.00
C5       0.78857    0.65517    0.42474   1.00
H2       0.76971    0.67715    0.43950   1.00
H2       0.79878    0.63452    0.44768   1.00
C5       0.76559    0.63300    0.39314   1.00
C5       0.72719    0.61725    0.41033   1.00
H2       1.09985    0.85786    0.38262   1.00
C5       1.12851    0.85412    0.43994   1.00
H2       1.11691    0.80823    0.39659   1.00
C5       0.86875    0.69837    0.64181   1.00
H2       0.92537    0.67051    0.63005   1.00
H2       0.91741    0.71793    0.60481   1.00
C5       0.92366    0.46997    0.20090   1.00
H2       0.87313    0.46711    0.24037   1.00
H2       0.87929    0.51437    0.21434   1.00
H2       0.73357    0.60102    0.43865   1.00
H2       0.70658    0.64261    0.41649   1.00
C5       0.70804    0.58917    0.38096   1.00
H2       1.10914    0.86616    0.46414   1.00
H2       1.14857    0.83071    0.45241   1.00
H2       1.14684    0.87874    0.42712   1.00
H2       0.84133    0.68320    0.63065   1.00
H2       0.87589    0.68729    0.67234   1.00
H2       0.86360    0.73121    0.64285   1.00
H2       0.94730    0.45389    0.21788   1.00
H2       0.90704    0.44836    0.18186   1.00
H2       0.93768    0.49319    0.18166   1.00
H2       0.71802    0.55807    0.38723   1.00
H2       0.67496    0.59098    0.38384   1.00
H2       0.71696    0.59766    0.35007   1.00
C5       0.53282    0.39848    0.28930   1.00
H2       0.51755    0.37319    0.30260   1.00
H2       0.55410    0.38594    0.26831   1.00
C5       0.50306    0.42439    0.26783   1.00
C5       0.49377    0.40771    0.22716   1.00
H2       0.51485    0.45447    0.26450   1.00
O3       0.68500    0.48261    0.39391   1.00
C4       0.64400    0.41472    0.41532   1.00
C3c      0.62257    0.40368    0.38218   1.00
H1       0.63775    0.39483    0.35599   1.00
C3d      0.62365    0.42562    0.44933   1.00
C3       0.58146    0.40438    0.38205   1.00
O2       0.56252    0.38868    0.35031   1.00
C3       0.58273    0.42707    0.44906   1.00
H1       0.56843    0.43694    0.47538   1.00
C2       0.56061    0.41640    0.41567   1.00
C5       0.68621    0.51061    0.42411   1.00
H2       0.71662    0.51967    0.43127   1.00
H2       0.67234    0.49918    0.45126   1.00
C5       0.66371    0.54639    0.41022   1.00
H2       0.63363    0.53714    0.40202   1.00
H2       0.67802    0.55777    0.38332   1.00
C5       0.66238    0.57801    0.44210   1.00
H2       0.69232    0.58719    0.45062   1.00
H2       0.64689    0.56712    0.46848   1.00
C5       0.64055    0.61423    0.42693   1.00
C5       0.65395    0.40798    0.50591   1.00
C5       0.55430    0.41834    0.32282   1.00
H2       0.67412    0.38769    0.49059   1.00
H2       0.62788    0.39122    0.51589   1.00
H2       0.58200    0.43171    0.31214   1.00
H2       0.53605    0.44232    0.33538   1.00
H2       0.47470    0.42566    0.28392   1.00
H2       0.72253    0.38198    0.54753   1.00
H2       0.67737    0.36836    0.57180   1.00
C2       0.76895    0.41743    0.41613   1.00
C3       0.74903    0.38247    0.42496   1.00
O2       0.76826    0.35211    0.44312   1.00
C3       0.74674    0.45050    0.40527   1.00
H1       0.76115    0.47741    0.39736   1.00
C3a      0.70787    0.38158    0.42376   1.00
H1       0.69298    0.35525    0.43276   1.00
C3b      0.70578    0.44988    0.40532   1.00
C4       0.68600    0.41528    0.41468   1.00
O3       0.64333    0.43956    0.48172   1.00
C5       0.77780    0.32288    0.41574   1.00
H2       0.75109    0.31101    0.40133   1.00
C5       0.79826    0.29029    0.43806   1.00
H2       0.79774    0.33448    0.39280   1.00
H2       0.77568    0.27224    0.45290   1.00
H2       0.81593    0.30418    0.46154   1.00
C5       0.82418    0.26467    0.41180   1.00
H2       0.80676    0.25356    0.38681   1.00
C5       0.84047    0.22966    0.43477   1.00
H2       0.84993    0.28131    0.40061   1.00
C5       0.67483    0.42474    0.54143   1.00
H2       0.65285    0.43950    0.56029   1.00
H2       0.69548    0.44768    0.53122   1.00
C5       0.69700    0.39314    0.56441   1.00
C5       0.71275    0.41033    0.60281   1.00
H2       0.47214    0.38262    0.23015   1.00
C5       0.47588    0.43994    0.20149   1.00
H2       0.52177    0.39659    0.21309   1.00
C5       0.63163    0.64181    0.46125   1.00
H2       0.65949    0.63005    0.40463   1.00
H2       0.61207    0.60481    0.41259   1.00
C5       0.86003    0.20090    0.40634   1.00
H2       0.86289    0.24037    0.45687   1.00
H2       0.81563    0.21434    0.45071   1.00
H2       0.72898    0.43865    0.59643   1.00
H2       0.68739    0.41649    0.62342   1.00
C5       0.74083    0.38096    0.62196   1.00
H2       0.46384    0.46414    0.22086   1.00
H2       0.49929    0.45241    0.18143   1.00
H2       0.45126    0.42712    0.18316   1.00
H2       0.64680    0.63065    0.48867   1.00
H2       0.64271    0.67234    0.45411   1.00
H2       0.59879    0.64285    0.46640   1.00
H2       0.87611    0.21788    0.38270   1.00
H2       0.88164    0.18186    0.42296   1.00
H2       0.83681    0.18166    0.39232   1.00
H2       0.77193    0.38723    0.61198   1.00
H2       0.73902    0.38384    0.65504   1.00
H2       0.73234    0.35007    0.61304   1.00
C5       1.29718    0.39848    0.54070   1.00
H2       1.31245    0.37319    0.52740   1.00
H2       1.27590    0.38594    0.56169   1.00
C5       1.32694    0.42439    0.56217   1.00
C5       1.33623    0.40771    0.60284   1.00
H2       1.31515    0.45447    0.56550   1.00
O3       1.14500    0.48261    0.43609   1.00
C4       1.18600    0.41472    0.41468   1.00
C3c      1.20743    0.40368    0.44782   1.00
H1       1.19225    0.39483    0.47401   1.00
C3d      1.20635    0.42562    0.38067   1.00
C3       1.24854    0.40438    0.44795   1.00
O2       1.26748    0.38868    0.47969   1.00
C3       1.24727    0.42707    0.38094   1.00
H1       1.26157    0.43694    0.35462   1.00
C2       1.26939    0.41640    0.41433   1.00
C5       1.14379    0.51061    0.40589   1.00
H2       1.11338    0.51967    0.39873   1.00
H2       1.15766    0.49918    0.37874   1.00
C5       1.16629    0.54639    0.41978   1.00
H2       1.19637    0.53714    0.42798   1.00
H2       1.15198    0.55777    0.44668   1.00
C5       1.16762    0.57801    0.38790   1.00
H2       1.13768    0.58719    0.37938   1.00
H2       1.18311    0.56712    0.36152   1.00
C5       1.18945    0.61423    0.40307   1.00
C5       1.17605    0.40798    0.32409   1.00
C5       1.27570    0.41834    0.50718   1.00
H2       1.15588    0.38769    0.33941   1.00
H2       1.20212    0.39122    0.31411   1.00
H2       1.24800    0.43171    0.51786   1.00
H2       1.29395    0.44232    0.49462   1.00
H2       1.35530    0.42566    0.54608   1.00
H2       1.10747    0.38198    0.28247   1.00
H2       1.15263    0.36836    0.25820   1.00
C2       1.06105    0.41743    0.41387   1.00
C3       1.08097    0.38247    0.40504   1.00
O2       1.06174    0.35211    0.38688   1.00
C3       1.08326    0.45050    0.42473   1.00
H1       1.06885    0.47741    0.43264   1.00
C3a      1.12213    0.38158    0.40624   1.00
H1       1.13702    0.35525    0.39724   1.00
C3b      1.12422    0.44988    0.42468   1.00
C4       1.14400    0.41528    0.41532   1.00
O3       1.18667    0.43956    0.34828   1.00
C5       1.05220    0.32288    0.41426   1.00
H2       1.07891    0.31101    0.42867   1.00
C5       1.03174    0.29029    0.39194   1.00
H2       1.03226    0.33448    0.43720   1.00
H2       1.05432    0.27224    0.37710   1.00
H2       1.01407    0.30418    0.36846   1.00
C5       1.00582    0.26467    0.41820   1.00
H2       1.02324    0.25356    0.44319   1.00
C5       0.98953    0.22966    0.39523   1.00
H2       0.98007    0.28131    0.42939   1.00
C5       1.15517    0.42474    0.28857   1.00
H2       1.17715    0.43950    0.26971   1.00
H2       1.13452    0.44768    0.29878   1.00
C5       1.13300    0.39314    0.26559   1.00
C5       1.11725    0.41033    0.22719   1.00
H2       1.35786    0.38262    0.59985   1.00
C5       1.35412    0.43994    0.62851   1.00
H2       1.30823    0.39659    0.61691   1.00
C5       1.19837    0.64181    0.36875   1.00
H2       1.17051    0.63005    0.42537   1.00
H2       1.21793    0.60481    0.41741   1.00
C5       0.96997    0.20090    0.42366   1.00
H2       0.96711    0.24037    0.37313   1.00
H2       1.01437    0.21434    0.37929   1.00
H2       1.10102    0.43865    0.23357   1.00
H2       1.14261    0.41649    0.20658   1.00
C5       1.08917    0.38096    0.20804   1.00
H2       1.36616    0.46414    0.60914   1.00
H2       1.33071    0.45241    0.64857   1.00
H2       1.37874    0.42712    0.64684   1.00
H2       1.18320    0.63065    0.34133   1.00
H2       1.18729    0.67234    0.37589   1.00
H2       1.23121    0.64285    0.36360   1.00
H2       0.95389    0.21788    0.44730   1.00
H2       0.94836    0.18186    0.40704   1.00
H2       0.99319    0.18166    0.43768   1.00
H2       1.05807    0.38723    0.21802   1.00
H2       1.09098    0.38384    0.17496   1.00
H2       1.09766    0.35007    0.21696   1.00
C5       0.78930    0.03282    0.39848   1.00
H2       0.80260    0.01755    0.37319   1.00
H2       0.76831    0.05410    0.38594   1.00
C5       0.76783    0.00306    0.42439   1.00
C5       0.72716    -0.00623   0.40771   1.00
H2       0.76450    0.01485    0.45447   1.00
O3       0.89391    0.18500    0.48261   1.00
C4       0.91532    0.14400    0.41472   1.00
C3c      0.88218    0.12257    0.40368   1.00
H1       0.85599    0.13775    0.39483   1.00
C3d      0.94933    0.12365    0.42562   1.00
C3       0.88205    0.08146    0.40438   1.00
O2       0.85031    0.06252    0.38868   1.00
C3       0.94906    0.08273    0.42707   1.00
H1       0.97538    0.06843    0.43694   1.00
C2       0.91567    0.06061    0.41640   1.00
C5       0.92411    0.18621    0.51061   1.00
H2       0.93127    0.21662    0.51967   1.00
H2       0.95126    0.17234    0.49918   1.00
C5       0.91022    0.16371    0.54639   1.00
H2       0.90202    0.13363    0.53714   1.00
H2       0.88332    0.17802    0.55777   1.00
C5       0.94210    0.16238    0.57801   1.00
H2       0.95062    0.19232    0.58719   1.00
H2       0.96848    0.14689    0.56712   1.00
C5       0.92693    0.14055    0.61423   1.00
C5       1.00591    0.15395    0.40798   1.00
C5       0.82282    0.05430    0.41834   1.00
H2       0.99059    0.17412    0.38769   1.00
H2       1.01589    0.12788    0.39122   1.00
H2       0.81214    0.08200    0.43171   1.00
H2       0.83538    0.03605    0.44232   1.00
H2       0.78392    -0.02530   0.42566   1.00
H2       1.04753    0.22253    0.38198   1.00
H2       1.07180    0.17737    0.36836   1.00
C2       0.91613    0.26895    0.41743   1.00
C3       0.92496    0.24903    0.38247   1.00
O2       0.94312    0.26826    0.35211   1.00
C3       0.90527    0.24674    0.45050   1.00
H1       0.89736    0.26115    0.47741   1.00
C3a      0.92376    0.20787    0.38158   1.00
H1       0.93276    0.19298    0.35525   1.00
C3b      0.90532    0.20578    0.44988   1.00
C4       0.91468    0.18600    0.41528   1.00
O3       0.98172    0.14333    0.43956   1.00
C5       0.91574    0.27780    0.32288   1.00
H2       0.90133    0.25109    0.31101   1.00
C5       0.93806    0.29826    0.29029   1.00
H2       0.89280    0.29774    0.33448   1.00
H2       0.95290    0.27568    0.27224   1.00
H2       0.96154    0.31593    0.30418   1.00
C5       0.91180    0.32418    0.26467   1.00
H2       0.88681    0.30676    0.25356   1.00
C5       0.93477    0.34047    0.22966   1.00
H2       0.90061    0.34993    0.28131   1.00
C5       1.04143    0.17483    0.42474   1.00
H2       1.06029    0.15285    0.43950   1.00
H2       1.03122    0.19548    0.44768   1.00
C5       1.06441    0.19700    0.39314   1.00
C5       1.10281    0.21275    0.41033   1.00
H2       0.73015    -0.02786   0.38262   1.00
C5       0.70149    -0.02412   0.43994   1.00
H2       0.71309    0.02177    0.39659   1.00
C5       0.96125    0.13163    0.64181   1.00
H2       0.90463    0.15949    0.63005   1.00
H2       0.91259    0.11207    0.60481   1.00
C5       0.90634    0.36003    0.20090   1.00
H2       0.95687    0.36289    0.24037   1.00
H2       0.95071    0.31563    0.21434   1.00
H2       1.09643    0.22898    0.43865   1.00
H2       1.12342    0.18739    0.41649   1.00
C5       1.12196    0.24083    0.38096   1.00
H2       0.72086    -0.03616   0.46414   1.00
H2       0.68143    -0.00071   0.45241   1.00
H2       0.68316    -0.04874   0.42712   1.00
H2       0.98867    0.14680    0.63065   1.00
H2       0.95411    0.14271    0.67234   1.00
H2       0.96640    0.09879    0.64285   1.00
H2       0.88270    0.37611    0.21788   1.00
H2       0.92296    0.38164    0.18186   1.00
H2       0.89232    0.33681    0.18166   1.00
H2       1.11198    0.27193    0.38723   1.00
H2       1.15504    0.23902    0.38384   1.00
H2       1.11304    0.23234    0.35007   1.00
C5       0.89848    0.28930    0.03282   1.00
H2       0.87319    0.30260    0.01755   1.00
H2       0.88594    0.26831    0.05410   1.00
C5       0.92439    0.26783    0.00306   1.00
C5       0.90771    0.22716    -0.00623   1.00
H2       0.95447    0.26450    0.01485   1.00
O3       0.98261    0.39391    0.18500   1.00
C4       0.91472    0.41532    0.14400   1.00
C3c      0.90368    0.38218    0.12257   1.00
H1       0.89483    0.35599    0.13775   1.00
C3d      0.92562    0.44933    0.12365   1.00
C3       0.90438    0.38205    0.08146   1.00
O2       0.88868    0.35031    0.06252   1.00
C3       0.92707    0.44906    0.08273   1.00
H1       0.93694    0.47538    0.06843   1.00
C2       0.91640    0.41567    0.06061   1.00
C5       1.01061    0.42411    0.18621   1.00
H2       1.01967    0.43127    0.21662   1.00
H2       0.99918    0.45126    0.17234   1.00
C5       1.04639    0.41022    0.16371   1.00
H2       1.03714    0.40202    0.13363   1.00
H2       1.05777    0.38332    0.17802   1.00
C5       1.07801    0.44210    0.16238   1.00
H2       1.08719    0.45062    0.19232   1.00
H2       1.06712    0.46848    0.14689   1.00
C5       1.11423    0.42693    0.14055   1.00
C5       0.90798    0.50591    0.15395   1.00
C5       0.91834    0.32282    0.05430   1.00
H2       0.88769    0.49059    0.17412   1.00
H2       0.89122    0.51589    0.12788   1.00
H2       0.93171    0.31214    0.08200   1.00
H2       0.94232    0.33538    0.03605   1.00
H2       0.92566    0.28392    -0.02530   1.00
H2       0.88198    0.54753    0.22253   1.00
H2       0.86836    0.57180    0.17737   1.00
C2       0.91743    0.41613    0.26895   1.00
C3       0.88247    0.42496    0.24903   1.00
O2       0.85211    0.44312    0.26826   1.00
C3       0.95050    0.40527    0.24674   1.00
H1       0.97741    0.39736    0.26115   1.00
C3a      0.88158    0.42376    0.20787   1.00
H1       0.85525    0.43276    0.19298   1.00
C3b      0.94988    0.40532    0.20578   1.00
C4       0.91528    0.41468    0.18600   1.00
O3       0.93956    0.48172    0.14333   1.00
C5       0.82288    0.41574    0.27780   1.00
H2       0.81101    0.40133    0.25109   1.00
C5       0.79029    0.43806    0.29826   1.00
H2       0.83448    0.39280    0.29774   1.00
H2       0.77224    0.45290    0.27568   1.00
H2       0.80418    0.46154    0.31593   1.00
C5       0.76467    0.41180    0.32418   1.00
H2       0.75356    0.38681    0.30676   1.00
C5       0.72966    0.43477    0.34047   1.00
H2       0.78131    0.40061    0.34993   1.00
C5       0.92474    0.54143    0.17483   1.00
H2       0.93950    0.56029    0.15285   1.00
H2       0.94768    0.53122    0.19548   1.00
C5       0.89314    0.56441    0.19700   1.00
C5       0.91033    0.60281    0.21275   1.00
H2       0.88262    0.23015    -0.02786   1.00
C5       0.93994    0.20149    -0.02412   1.00
H2       0.89659    0.21309    0.02177   1.00
C5       1.14181    0.46125    0.13163   1.00
H2       1.13005    0.40463    0.15949   1.00
H2       1.10481    0.41259    0.11207   1.00
C5       0.70090    0.40634    0.36003   1.00
H2       0.74037    0.45687    0.36289   1.00
H2       0.71434    0.45071    0.31563   1.00
H2       0.93865    0.59643    0.22898   1.00
H2       0.91649    0.62342    0.18739   1.00
C5       0.88096    0.62196    0.24083   1.00
H2       0.96414    0.22086    -0.03616   1.00
H2       0.95241    0.18143    -0.00071   1.00
H2       0.92712    0.18316    -0.04874   1.00
H2       1.13065    0.48867    0.14680   1.00
H2       1.17234    0.45411    0.14271   1.00
H2       1.14285    0.46640    0.09879   1.00
H2       0.71788    0.38270    0.37611   1.00
H2       0.68186    0.42296    0.38164   1.00
H2       0.68166    0.39232    0.33681   1.00
H2       0.88723    0.61198    0.27193   1.00
H2       0.88384    0.65504    0.23902   1.00
H2       0.85007    0.61304    0.23234   1.00
