data_IRMOF10_SG202_interpen_Ligand12cp_label_e.

_audit_creation_method             'generated by an auxiliary program of Tobunporous'

_symmetry_space_group_name_H-M     'P 1'
_symmetry_Int_Tables_number        1
_symmetry_cell_setting             triclinic

_cell_length_a                    34.2800
_cell_length_b                    34.2800
_cell_length_c                    34.2800
_cell_angle_alpha                 90.0000
_cell_angle_beta                  90.0000
_cell_angle_gamma                 90.0000

loop_
_atom_site_label
_atom_site_fract_x
_atom_site_fract_y
_atom_site_fract_z
_atom_site_occupancy
O1       0.75000    0.75000    0.75000   1.00
Zn1      0.71720    0.78280    0.78280   1.00
Zn1      0.78280    0.71720    0.78280   1.00
Zn1      0.78280    0.78280    0.71720   1.00
Zn1      0.71720    0.71720    0.71720   1.00
O2       0.72650    0.77350    0.83820   1.00
O2       0.72650    0.83820    0.77350   1.00
O2       0.66180    0.77350    0.77350   1.00
O2       0.77350    0.72650    0.83820   1.00
O2       0.83820    0.72650    0.77350   1.00
O2       0.77350    0.66180    0.77350   1.00
O2       0.77350    0.83820    0.72650   1.00
O2       0.83820    0.77350    0.72650   1.00
O2       0.77350    0.77350    0.66180   1.00
O2       0.66180    0.72650    0.72650   1.00
O2       0.72650    0.66180    0.72650   1.00
O2       0.72650    0.72650    0.66180   1.00
C1       0.75000    0.75000    0.85520   1.00
C1       0.75000    0.85520    0.75000   1.00
C1       0.64480    0.75000    0.75000   1.00
C1       0.85520    0.75000    0.75000   1.00
C1       0.75000    0.64480    0.75000   1.00
C1       0.75000    0.75000    0.64480   1.00
O1       0.25000    0.25000    0.75000   1.00
Zn1      0.21720    0.28280    0.78280   1.00
Zn1      0.28280    0.21720    0.78280   1.00
Zn1      0.28280    0.28280    0.71720   1.00
Zn1      0.21720    0.21720    0.71720   1.00
O2       0.22650    0.27350    0.83820   1.00
O2       0.22650    0.33820    0.77350   1.00
O2       0.16180    0.27350    0.77350   1.00
O2       0.27350    0.22650    0.83820   1.00
O2       0.33820    0.22650    0.77350   1.00
O2       0.27350    0.16180    0.77350   1.00
O2       0.27350    0.33820    0.72650   1.00
O2       0.33820    0.27350    0.72650   1.00
O2       0.27350    0.27350    0.66180   1.00
O2       0.16180    0.22650    0.72650   1.00
O2       0.22650    0.16180    0.72650   1.00
O2       0.22650    0.22650    0.66180   1.00
C1       0.25000    0.25000    0.85520   1.00
C1       0.25000    0.35520    0.75000   1.00
C1       0.14480    0.25000    0.75000   1.00
C1       0.35520    0.25000    0.75000   1.00
C1       0.25000    0.14480    0.75000   1.00
C1       0.25000    0.25000    0.64480   1.00
O1       0.25000    0.75000    0.25000   1.00
Zn1      0.21720    0.78280    0.28280   1.00
Zn1      0.28280    0.71720    0.28280   1.00
Zn1      0.28280    0.78280    0.21720   1.00
Zn1      0.21720    0.71720    0.21720   1.00
O2       0.22650    0.77350    0.33820   1.00
O2       0.22650    0.83820    0.27350   1.00
O2       0.16180    0.77350    0.27350   1.00
O2       0.27350    0.72650    0.33820   1.00
O2       0.33820    0.72650    0.27350   1.00
O2       0.27350    0.66180    0.27350   1.00
O2       0.27350    0.83820    0.22650   1.00
O2       0.33820    0.77350    0.22650   1.00
O2       0.27350    0.77350    0.16180   1.00
O2       0.16180    0.72650    0.22650   1.00
O2       0.22650    0.66180    0.22650   1.00
O2       0.22650    0.72650    0.16180   1.00
C1       0.25000    0.75000    0.35520   1.00
C1       0.25000    0.85520    0.25000   1.00
C1       0.14480    0.75000    0.25000   1.00
C1       0.35520    0.75000    0.25000   1.00
C1       0.25000    0.64480    0.25000   1.00
C1       0.25000    0.75000    0.14480   1.00
O1       0.75000    0.25000    0.25000   1.00
Zn1      0.71720    0.28280    0.28280   1.00
Zn1      0.78280    0.21720    0.28280   1.00
Zn1      0.78280    0.28280    0.21720   1.00
Zn1      0.71720    0.21720    0.21720   1.00
O2       0.72650    0.27350    0.33820   1.00
O2       0.72650    0.33820    0.27350   1.00
O2       0.66180    0.27350    0.27350   1.00
O2       0.77350    0.22650    0.33820   1.00
O2       0.83820    0.22650    0.27350   1.00
O2       0.77350    0.16180    0.27350   1.00
O2       0.77350    0.33820    0.22650   1.00
O2       0.83820    0.27350    0.22650   1.00
O2       0.77350    0.27350    0.16180   1.00
O2       0.66180    0.22650    0.22650   1.00
O2       0.72650    0.16180    0.22650   1.00
O2       0.72650    0.22650    0.16180   1.00
C1       0.75000    0.25000    0.35520   1.00
C1       0.75000    0.35520    0.25000   1.00
C1       0.64480    0.25000    0.25000   1.00
C1       0.85520    0.25000    0.25000   1.00
C1       0.75000    0.14480    0.25000   1.00
C1       0.75000    0.25000    0.14480   1.00
O1       0.25000    0.25000    0.25000   1.00
Zn1      0.28280    0.21720    0.21720   1.00
Zn1      0.21720    0.28280    0.21720   1.00
Zn1      0.21720    0.21720    0.28280   1.00
Zn1      0.28280    0.28280    0.28280   1.00
O2       0.27350    0.22650    0.16180   1.00
O2       0.27350    0.16180    0.22650   1.00
O2       0.33820    0.22650    0.22650   1.00
O2       0.22650    0.27350    0.16180   1.00
O2       0.16180    0.27350    0.22650   1.00
O2       0.22650    0.33820    0.22650   1.00
O2       0.22650    0.16180    0.27350   1.00
O2       0.16180    0.22650    0.27350   1.00
O2       0.22650    0.22650    0.33820   1.00
O2       0.33820    0.27350    0.27350   1.00
O2       0.27350    0.33820    0.27350   1.00
O2       0.27350    0.27350    0.33820   1.00
C1       0.25000    0.25000    0.14480   1.00
C1       0.25000    0.14480    0.25000   1.00
C1       0.35520    0.25000    0.25000   1.00
C1       0.14480    0.25000    0.25000   1.00
C1       0.25000    0.35520    0.25000   1.00
C1       0.25000    0.25000    0.35520   1.00
O1       0.75000    0.75000    0.25000   1.00
Zn1      0.78280    0.71720    0.21720   1.00
Zn1      0.71720    0.78280    0.21720   1.00
Zn1      0.71720    0.71720    0.28280   1.00
Zn1      0.78280    0.78280    0.28280   1.00
O2       0.77350    0.72650    0.16180   1.00
O2       0.77350    0.66180    0.22650   1.00
O2       0.83820    0.72650    0.22650   1.00
O2       0.72650    0.77350    0.16180   1.00
O2       0.66180    0.77350    0.22650   1.00
O2       0.72650    0.83820    0.22650   1.00
O2       0.72650    0.66180    0.27350   1.00
O2       0.66180    0.72650    0.27350   1.00
O2       0.72650    0.72650    0.33820   1.00
O2       0.83820    0.77350    0.27350   1.00
O2       0.77350    0.83820    0.27350   1.00
O2       0.77350    0.77350    0.33820   1.00
C1       0.75000    0.75000    0.14480   1.00
C1       0.75000    0.64480    0.25000   1.00
C1       0.85520    0.75000    0.25000   1.00
C1       0.64480    0.75000    0.25000   1.00
C1       0.75000    0.85520    0.25000   1.00
C1       0.75000    0.75000    0.35520   1.00
O1       0.75000    0.25000    0.75000   1.00
Zn1      0.78280    0.21720    0.71720   1.00
Zn1      0.71720    0.28280    0.71720   1.00
Zn1      0.71720    0.21720    0.78280   1.00
Zn1      0.78280    0.28280    0.78280   1.00
O2       0.77350    0.22650    0.66180   1.00
O2       0.77350    0.16180    0.72650   1.00
O2       0.83820    0.22650    0.72650   1.00
O2       0.72650    0.27350    0.66180   1.00
O2       0.66180    0.27350    0.72650   1.00
O2       0.72650    0.33820    0.72650   1.00
O2       0.72650    0.16180    0.77350   1.00
O2       0.66180    0.22650    0.77350   1.00
O2       0.72650    0.22650    0.83820   1.00
O2       0.83820    0.27350    0.77350   1.00
O2       0.77350    0.33820    0.77350   1.00
O2       0.77350    0.27350    0.83820   1.00
C1       0.75000    0.25000    0.64480   1.00
C1       0.75000    0.14480    0.75000   1.00
C1       0.85520    0.25000    0.75000   1.00
C1       0.64480    0.25000    0.75000   1.00
C1       0.75000    0.35520    0.75000   1.00
C1       0.75000    0.25000    0.85520   1.00
O1       0.25000    0.75000    0.75000   1.00
Zn1      0.28280    0.71720    0.71720   1.00
Zn1      0.21720    0.78280    0.71720   1.00
Zn1      0.21720    0.71720    0.78280   1.00
Zn1      0.28280    0.78280    0.78280   1.00
O2       0.27350    0.72650    0.66180   1.00
O2       0.27350    0.66180    0.72650   1.00
O2       0.33820    0.72650    0.72650   1.00
O2       0.22650    0.77350    0.66180   1.00
O2       0.16180    0.77350    0.72650   1.00
O2       0.22650    0.83820    0.72650   1.00
O2       0.22650    0.66180    0.77350   1.00
O2       0.16180    0.72650    0.77350   1.00
O2       0.22650    0.72650    0.83820   1.00
O2       0.33820    0.77350    0.77350   1.00
O2       0.27350    0.83820    0.77350   1.00
O2       0.27350    0.77350    0.83820   1.00
C1       0.25000    0.75000    0.64480   1.00
C1       0.25000    0.64480    0.75000   1.00
C1       0.35520    0.75000    0.75000   1.00
C1       0.14480    0.75000    0.75000   1.00
C1       0.25000    0.85520    0.75000   1.00
C1       0.25000    0.75000    0.85520   1.00
O1       0.91500    0.91500    0.91500   1.00
Zn1      0.88220    0.94780    0.94780   1.00
Zn1      0.94780    0.88220    0.94780   1.00
Zn1      0.94780    0.94780    0.88220   1.00
Zn1      0.88220    0.88220    0.88220   1.00
O2       0.89150    0.93850    1.00320   1.00
O2       0.89150    1.00320    0.93850   1.00
O2       0.82680    0.93850    0.93850   1.00
O2       0.93850    0.89150    1.00320   1.00
O2       1.00320    0.89150    0.93850   1.00
O2       0.93850    0.82680    0.93850   1.00
O2       0.93850    1.00320    0.89150   1.00
O2       1.00320    0.93850    0.89150   1.00
O2       0.93850    0.93850    0.82680   1.00
O2       0.82680    0.89150    0.89150   1.00
O2       0.89150    0.82680    0.89150   1.00
O2       0.89150    0.89150    0.82680   1.00
C1       0.91500    0.91500    1.02020   1.00
C1       0.91500    1.02020    0.91500   1.00
C1       0.80980    0.91500    0.91500   1.00
C1       1.02020    0.91500    0.91500   1.00
C1       0.91500    0.80980    0.91500   1.00
C1       0.91500    0.91500    0.80980   1.00
O1       0.41500    0.41500    0.91500   1.00
Zn1      0.38220    0.44780    0.94780   1.00
Zn1      0.44780    0.38220    0.94780   1.00
Zn1      0.44780    0.44780    0.88220   1.00
Zn1      0.38220    0.38220    0.88220   1.00
O2       0.39150    0.43850    1.00320   1.00
O2       0.39150    0.50320    0.93850   1.00
O2       0.32680    0.43850    0.93850   1.00
O2       0.43850    0.39150    1.00320   1.00
O2       0.50320    0.39150    0.93850   1.00
O2       0.43850    0.32680    0.93850   1.00
O2       0.43850    0.50320    0.89150   1.00
O2       0.50320    0.43850    0.89150   1.00
O2       0.43850    0.43850    0.82680   1.00
O2       0.32680    0.39150    0.89150   1.00
O2       0.39150    0.32680    0.89150   1.00
O2       0.39150    0.39150    0.82680   1.00
C1       0.41500    0.41500    1.02020   1.00
C1       0.41500    0.52020    0.91500   1.00
C1       0.30980    0.41500    0.91500   1.00
C1       0.52020    0.41500    0.91500   1.00
C1       0.41500    0.30980    0.91500   1.00
C1       0.41500    0.41500    0.80980   1.00
O1       0.41500    0.91500    0.41500   1.00
Zn1      0.38220    0.94780    0.44780   1.00
Zn1      0.44780    0.88220    0.44780   1.00
Zn1      0.44780    0.94780    0.38220   1.00
Zn1      0.38220    0.88220    0.38220   1.00
O2       0.39150    0.93850    0.50320   1.00
O2       0.39150    1.00320    0.43850   1.00
O2       0.32680    0.93850    0.43850   1.00
O2       0.43850    0.89150    0.50320   1.00
O2       0.50320    0.89150    0.43850   1.00
O2       0.43850    0.82680    0.43850   1.00
O2       0.43850    1.00320    0.39150   1.00
O2       0.50320    0.93850    0.39150   1.00
O2       0.43850    0.93850    0.32680   1.00
O2       0.32680    0.89150    0.39150   1.00
O2       0.39150    0.82680    0.39150   1.00
O2       0.39150    0.89150    0.32680   1.00
C1       0.41500    0.91500    0.52020   1.00
C1       0.41500    1.02020    0.41500   1.00
C1       0.30980    0.91500    0.41500   1.00
C1       0.52020    0.91500    0.41500   1.00
C1       0.41500    0.80980    0.41500   1.00
C1       0.41500    0.91500    0.30980   1.00
O1       0.91500    0.41500    0.41500   1.00
Zn1      0.88220    0.44780    0.44780   1.00
Zn1      0.94780    0.38220    0.44780   1.00
Zn1      0.94780    0.44780    0.38220   1.00
Zn1      0.88220    0.38220    0.38220   1.00
O2       0.89150    0.43850    0.50320   1.00
O2       0.89150    0.50320    0.43850   1.00
O2       0.82680    0.43850    0.43850   1.00
O2       0.93850    0.39150    0.50320   1.00
O2       1.00320    0.39150    0.43850   1.00
O2       0.93850    0.32680    0.43850   1.00
O2       0.93850    0.50320    0.39150   1.00
O2       1.00320    0.43850    0.39150   1.00
O2       0.93850    0.43850    0.32680   1.00
O2       0.82680    0.39150    0.39150   1.00
O2       0.89150    0.32680    0.39150   1.00
O2       0.89150    0.39150    0.32680   1.00
C1       0.91500    0.41500    0.52020   1.00
C1       0.91500    0.52020    0.41500   1.00
C1       0.80980    0.41500    0.41500   1.00
C1       1.02020    0.41500    0.41500   1.00
C1       0.91500    0.30980    0.41500   1.00
C1       0.91500    0.41500    0.30980   1.00
O1       0.41500    0.41500    0.41500   1.00
Zn1      0.44780    0.38220    0.38220   1.00
Zn1      0.38220    0.44780    0.38220   1.00
Zn1      0.38220    0.38220    0.44780   1.00
Zn1      0.44780    0.44780    0.44780   1.00
O2       0.43850    0.39150    0.32680   1.00
O2       0.43850    0.32680    0.39150   1.00
O2       0.50320    0.39150    0.39150   1.00
O2       0.39150    0.43850    0.32680   1.00
O2       0.32680    0.43850    0.39150   1.00
O2       0.39150    0.50320    0.39150   1.00
O2       0.39150    0.32680    0.43850   1.00
O2       0.32680    0.39150    0.43850   1.00
O2       0.39150    0.39150    0.50320   1.00
O2       0.50320    0.43850    0.43850   1.00
O2       0.43850    0.50320    0.43850   1.00
O2       0.43850    0.43850    0.50320   1.00
C1       0.41500    0.41500    0.30980   1.00
C1       0.41500    0.30980    0.41500   1.00
C1       0.52020    0.41500    0.41500   1.00
C1       0.30980    0.41500    0.41500   1.00
C1       0.41500    0.52020    0.41500   1.00
C1       0.41500    0.41500    0.52020   1.00
O1       0.91500    0.91500    0.41500   1.00
Zn1      0.94780    0.88220    0.38220   1.00
Zn1      0.88220    0.94780    0.38220   1.00
Zn1      0.88220    0.88220    0.44780   1.00
Zn1      0.94780    0.94780    0.44780   1.00
O2       0.93850    0.89150    0.32680   1.00
O2       0.93850    0.82680    0.39150   1.00
O2       1.00320    0.89150    0.39150   1.00
O2       0.89150    0.93850    0.32680   1.00
O2       0.82680    0.93850    0.39150   1.00
O2       0.89150    1.00320    0.39150   1.00
O2       0.89150    0.82680    0.43850   1.00
O2       0.82680    0.89150    0.43850   1.00
O2       0.89150    0.89150    0.50320   1.00
O2       1.00320    0.93850    0.43850   1.00
O2       0.93850    1.00320    0.43850   1.00
O2       0.93850    0.93850    0.50320   1.00
C1       0.91500    0.91500    0.30980   1.00
C1       0.91500    0.80980    0.41500   1.00
C1       1.02020    0.91500    0.41500   1.00
C1       0.80980    0.91500    0.41500   1.00
C1       0.91500    1.02020    0.41500   1.00
C1       0.91500    0.91500    0.52020   1.00
O1       0.91500    0.41500    0.91500   1.00
Zn1      0.94780    0.38220    0.88220   1.00
Zn1      0.88220    0.44780    0.88220   1.00
Zn1      0.88220    0.38220    0.94780   1.00
Zn1      0.94780    0.44780    0.94780   1.00
O2       0.93850    0.39150    0.82680   1.00
O2       0.93850    0.32680    0.89150   1.00
O2       1.00320    0.39150    0.89150   1.00
O2       0.89150    0.43850    0.82680   1.00
O2       0.82680    0.43850    0.89150   1.00
O2       0.89150    0.50320    0.89150   1.00
O2       0.89150    0.32680    0.93850   1.00
O2       0.82680    0.39150    0.93850   1.00
O2       0.89150    0.39150    1.00320   1.00
O2       1.00320    0.43850    0.93850   1.00
O2       0.93850    0.50320    0.93850   1.00
O2       0.93850    0.43850    1.00320   1.00
C1       0.91500    0.41500    0.80980   1.00
C1       0.91500    0.30980    0.91500   1.00
C1       1.02020    0.41500    0.91500   1.00
C1       0.80980    0.41500    0.91500   1.00
C1       0.91500    0.52020    0.91500   1.00
C1       0.91500    0.41500    1.02020   1.00
O1       0.41500    0.91500    0.91500   1.00
Zn1      0.44780    0.88220    0.88220   1.00
Zn1      0.38220    0.94780    0.88220   1.00
Zn1      0.38220    0.88220    0.94780   1.00
Zn1      0.44780    0.94780    0.94780   1.00
O2       0.43850    0.89150    0.82680   1.00
O2       0.43850    0.82680    0.89150   1.00
O2       0.50320    0.89150    0.89150   1.00
O2       0.39150    0.93850    0.82680   1.00
O2       0.32680    0.93850    0.89150   1.00
O2       0.39150    1.00320    0.89150   1.00
O2       0.39150    0.82680    0.93850   1.00
O2       0.32680    0.89150    0.93850   1.00
O2       0.39150    0.89150    1.00320   1.00
O2       0.50320    0.93850    0.93850   1.00
O2       0.43850    1.00320    0.93850   1.00
O2       0.43850    0.93850    1.00320   1.00
C1       0.41500    0.91500    0.80980   1.00
C1       0.41500    0.80980    0.91500   1.00
C1       0.52020    0.91500    0.91500   1.00
C1       0.30980    0.91500    0.91500   1.00
C1       0.41500    1.02020    0.91500   1.00
C1       0.41500    0.91500    1.02020   1.00
C4       0.75020    0.75075    1.02067   1.00
C4       0.74980    0.74925    0.97933   1.00
C3       0.78511    0.74520    1.04244   1.00
C3       0.78281    0.73661    0.95756   1.00
C4       0.71500    0.75766    1.04150   1.00
C4       0.71586    0.76086    0.95850   1.00
C2       0.75060    0.74982    1.10352   1.00
C2       0.75061    0.74985    0.89648   1.00
C3       0.78504    0.74441    1.08310   1.00
C3       0.78314    0.73732    0.91690   1.00
C3       0.71604    0.75691    1.08306   1.00
C3       0.71713    0.76099    0.91694   1.00
H1       0.81329    0.74229    1.02888   1.00
H1       0.80867    0.72504    0.97112   1.00
C5       0.67989    0.76569    1.02065   1.00
C5       0.68143    0.77146    0.97935   1.00
H1       0.81204    0.73980    1.09886   1.00
H1       0.80883    0.72782    0.90114   1.00
H1       0.69046    0.76236    1.10053   1.00
H1       0.69225    0.76906    0.89947   1.00
C6       0.64088    0.76654    1.04234   1.00
C6       0.64723    0.79022    0.95766   1.00
H2       0.61718    0.75493    1.02358   1.00
H2       0.64052    0.74620    1.06737   1.00
C6       0.63152    0.80778    1.05724   1.00
H2       0.63250    0.81212    0.97642   1.00
H2       0.65708    0.80802    0.93263   1.00
C6       0.61850    0.75919    0.94276   1.00
H2       0.63070    0.82905    1.03274   1.00
C6       0.59229    0.80825    1.07832   1.00
H2       0.65480    0.81774    1.07760   1.00
C6       0.58429    0.77839    0.92168   1.00
H2       0.63369    0.73892    0.92240   1.00
H2       0.60716    0.74117    0.96726   1.00
H2       0.56850    0.79921    1.05822   1.00
H2       0.59281    0.78820    1.10380   1.00
H2       0.58589    0.83818    1.08898   1.00
H2       0.56821    0.79811    0.94178   1.00
H2       0.59476    0.79549    0.89620   1.00
H2       0.56378    0.75566    0.91102   1.00
C4       0.75075    1.02067    0.75020   1.00
C4       0.74925    0.97933    0.74980   1.00
C3       0.74520    1.04244    0.78511   1.00
C3       0.73661    0.95756    0.78281   1.00
C4       0.75766    1.04150    0.71500   1.00
C4       0.76086    0.95850    0.71586   1.00
C2       0.74982    1.10352    0.75060   1.00
C2       0.74985    0.89648    0.75061   1.00
C3       0.74441    1.08310    0.78504   1.00
C3       0.73732    0.91690    0.78314   1.00
C3       0.75691    1.08306    0.71604   1.00
C3       0.76099    0.91694    0.71713   1.00
H1       0.74229    1.02888    0.81329   1.00
H1       0.72504    0.97112    0.80867   1.00
C5       0.76569    1.02065    0.67989   1.00
C5       0.77146    0.97935    0.68143   1.00
H1       0.73980    1.09886    0.81204   1.00
H1       0.72782    0.90114    0.80883   1.00
H1       0.76236    1.10053    0.69046   1.00
H1       0.76906    0.89947    0.69225   1.00
C6       0.76654    1.04234    0.64088   1.00
C6       0.79022    0.95766    0.64723   1.00
H2       0.75493    1.02358    0.61718   1.00
H2       0.74620    1.06737    0.64052   1.00
C6       0.80778    1.05724    0.63152   1.00
H2       0.81212    0.97642    0.63250   1.00
H2       0.80802    0.93263    0.65708   1.00
C6       0.75919    0.94276    0.61850   1.00
H2       0.82905    1.03274    0.63070   1.00
C6       0.80825    1.07832    0.59229   1.00
H2       0.81774    1.07760    0.65480   1.00
C6       0.77839    0.92168    0.58429   1.00
H2       0.73892    0.92240    0.63369   1.00
H2       0.74117    0.96726    0.60716   1.00
H2       0.79921    1.05822    0.56850   1.00
H2       0.78820    1.10380    0.59281   1.00
H2       0.83818    1.08898    0.58589   1.00
H2       0.79811    0.94178    0.56821   1.00
H2       0.79549    0.89620    0.59476   1.00
H2       0.75566    0.91102    0.56378   1.00
C4       0.47933    0.75020    0.74925   1.00
C4       0.52067    0.74980    0.75075   1.00
C3       0.45756    0.78511    0.75480   1.00
C3       0.54244    0.78281    0.76339   1.00
C4       0.45850    0.71500    0.74234   1.00
C4       0.54150    0.71586    0.73914   1.00
C2       0.39648    0.75060    0.75018   1.00
C2       0.60352    0.75061    0.75015   1.00
C3       0.41690    0.78504    0.75559   1.00
C3       0.58310    0.78314    0.76268   1.00
C3       0.41694    0.71604    0.74309   1.00
C3       0.58306    0.71713    0.73901   1.00
H1       0.47112    0.81329    0.75771   1.00
H1       0.52888    0.80867    0.77496   1.00
C5       0.47935    0.67989    0.73431   1.00
C5       0.52065    0.68143    0.72854   1.00
H1       0.40114    0.81204    0.76020   1.00
H1       0.59886    0.80883    0.77218   1.00
H1       0.39947    0.69046    0.73764   1.00
H1       0.60053    0.69225    0.73094   1.00
C6       0.45766    0.64088    0.73346   1.00
C6       0.54234    0.64723    0.70978   1.00
H2       0.47642    0.61718    0.74507   1.00
H2       0.43263    0.64052    0.75380   1.00
C6       0.44276    0.63152    0.69222   1.00
H2       0.52358    0.63250    0.68788   1.00
H2       0.56737    0.65708    0.69198   1.00
C6       0.55724    0.61850    0.74081   1.00
H2       0.46726    0.63070    0.67095   1.00
C6       0.42168    0.59229    0.69175   1.00
H2       0.42240    0.65480    0.68226   1.00
C6       0.57832    0.58429    0.72161   1.00
H2       0.57760    0.63369    0.76108   1.00
H2       0.53274    0.60716    0.75883   1.00
H2       0.44178    0.56850    0.70079   1.00
H2       0.39620    0.59281    0.71180   1.00
H2       0.41102    0.58589    0.66182   1.00
H2       0.55822    0.56821    0.70189   1.00
H2       0.60380    0.59476    0.70451   1.00
H2       0.58898    0.56378    0.74434   1.00
C4       1.02067    0.75020    0.75075   1.00
C4       0.97933    0.74980    0.74925   1.00
C3       1.04244    0.78511    0.74520   1.00
C3       0.95756    0.78281    0.73661   1.00
C4       1.04150    0.71500    0.75766   1.00
C4       0.95850    0.71586    0.76086   1.00
C2       1.10352    0.75060    0.74982   1.00
C2       0.89648    0.75061    0.74985   1.00
C3       1.08310    0.78504    0.74441   1.00
C3       0.91690    0.78314    0.73732   1.00
C3       1.08306    0.71604    0.75691   1.00
C3       0.91694    0.71713    0.76099   1.00
H1       1.02888    0.81329    0.74229   1.00
H1       0.97112    0.80867    0.72504   1.00
C5       1.02065    0.67989    0.76569   1.00
C5       0.97935    0.68143    0.77146   1.00
H1       1.09886    0.81204    0.73980   1.00
H1       0.90114    0.80883    0.72782   1.00
H1       1.10053    0.69046    0.76236   1.00
H1       0.89947    0.69225    0.76906   1.00
C6       1.04234    0.64088    0.76654   1.00
C6       0.95766    0.64723    0.79022   1.00
H2       1.02358    0.61718    0.75493   1.00
H2       1.06737    0.64052    0.74620   1.00
C6       1.05724    0.63152    0.80778   1.00
H2       0.97642    0.63250    0.81212   1.00
H2       0.93263    0.65708    0.80802   1.00
C6       0.94276    0.61850    0.75919   1.00
H2       1.03274    0.63070    0.82905   1.00
C6       1.07832    0.59229    0.80825   1.00
H2       1.07760    0.65480    0.81774   1.00
C6       0.92168    0.58429    0.77839   1.00
H2       0.92240    0.63369    0.73892   1.00
H2       0.96726    0.60716    0.74117   1.00
H2       1.05822    0.56850    0.79921   1.00
H2       1.10380    0.59281    0.78820   1.00
H2       1.08898    0.58589    0.83818   1.00
H2       0.94178    0.56821    0.79811   1.00
H2       0.89620    0.59476    0.79549   1.00
H2       0.91102    0.56378    0.75566   1.00
C4       0.74925    0.47933    0.75020   1.00
C4       0.75075    0.52067    0.74980   1.00
C3       0.75480    0.45756    0.78511   1.00
C3       0.76339    0.54244    0.78281   1.00
C4       0.74234    0.45850    0.71500   1.00
C4       0.73914    0.54150    0.71586   1.00
C2       0.75018    0.39648    0.75060   1.00
C2       0.75015    0.60352    0.75061   1.00
C3       0.75559    0.41690    0.78504   1.00
C3       0.76268    0.58310    0.78314   1.00
C3       0.74309    0.41694    0.71604   1.00
C3       0.73901    0.58306    0.71713   1.00
H1       0.75771    0.47112    0.81329   1.00
H1       0.77496    0.52888    0.80867   1.00
C5       0.73431    0.47935    0.67989   1.00
C5       0.72854    0.52065    0.68143   1.00
H1       0.76020    0.40114    0.81204   1.00
H1       0.77218    0.59886    0.80883   1.00
H1       0.73764    0.39947    0.69046   1.00
H1       0.73094    0.60053    0.69225   1.00
C6       0.73346    0.45766    0.64088   1.00
C6       0.70978    0.54234    0.64723   1.00
H2       0.74507    0.47642    0.61718   1.00
H2       0.75380    0.43263    0.64052   1.00
C6       0.69222    0.44276    0.63152   1.00
H2       0.68788    0.52358    0.63250   1.00
H2       0.69198    0.56737    0.65708   1.00
C6       0.74081    0.55724    0.61850   1.00
H2       0.67095    0.46726    0.63070   1.00
C6       0.69175    0.42168    0.59229   1.00
H2       0.68226    0.42240    0.65480   1.00
C6       0.72161    0.57832    0.58429   1.00
H2       0.76108    0.57760    0.63369   1.00
H2       0.75883    0.53274    0.60716   1.00
H2       0.70079    0.44178    0.56850   1.00
H2       0.71180    0.39620    0.59281   1.00
H2       0.66182    0.41102    0.58589   1.00
H2       0.70189    0.55822    0.56821   1.00
H2       0.70451    0.60380    0.59476   1.00
H2       0.74434    0.58898    0.56378   1.00
C4       0.75020    0.74925    0.47933   1.00
C4       0.74980    0.75075    0.52067   1.00
C3       0.78511    0.75480    0.45756   1.00
C3       0.78281    0.76339    0.54244   1.00
C4       0.71500    0.74234    0.45850   1.00
C4       0.71586    0.73914    0.54150   1.00
C2       0.75060    0.75018    0.39648   1.00
C2       0.75061    0.75015    0.60352   1.00
C3       0.78504    0.75559    0.41690   1.00
C3       0.78314    0.76268    0.58310   1.00
C3       0.71604    0.74309    0.41694   1.00
C3       0.71713    0.73901    0.58306   1.00
H1       0.81329    0.75771    0.47112   1.00
H1       0.80867    0.77496    0.52888   1.00
C5       0.67989    0.73431    0.47935   1.00
C5       0.68143    0.72854    0.52065   1.00
H1       0.81204    0.76020    0.40114   1.00
H1       0.80883    0.77218    0.59886   1.00
H1       0.69046    0.73764    0.39947   1.00
H1       0.69225    0.73094    0.60053   1.00
C6       0.64088    0.73346    0.45766   1.00
C6       0.64723    0.70978    0.54234   1.00
H2       0.61718    0.74507    0.47642   1.00
H2       0.64052    0.75380    0.43263   1.00
C6       0.63152    0.69222    0.44276   1.00
H2       0.63250    0.68788    0.52358   1.00
H2       0.65708    0.69198    0.56737   1.00
C6       0.61850    0.74081    0.55724   1.00
H2       0.63070    0.67095    0.46726   1.00
C6       0.59229    0.69175    0.42168   1.00
H2       0.65480    0.68226    0.42240   1.00
C6       0.58429    0.72161    0.57832   1.00
H2       0.63369    0.76108    0.57760   1.00
H2       0.60716    0.75883    0.53274   1.00
H2       0.56850    0.70079    0.44178   1.00
H2       0.59281    0.71180    0.39620   1.00
H2       0.58589    0.66182    0.41102   1.00
H2       0.56821    0.70189    0.55822   1.00
H2       0.59476    0.70451    0.60380   1.00
H2       0.56378    0.74434    0.58898   1.00
C4       0.25020    0.25075    1.02067   1.00
C4       0.24980    0.24925    0.97933   1.00
C3       0.28511    0.24520    1.04244   1.00
C3       0.28281    0.23661    0.95756   1.00
C4       0.21500    0.25766    1.04150   1.00
C4       0.21586    0.26086    0.95850   1.00
C2       0.25060    0.24982    1.10352   1.00
C2       0.25061    0.24985    0.89648   1.00
C3       0.28504    0.24441    1.08310   1.00
C3       0.28314    0.23732    0.91690   1.00
C3       0.21604    0.25691    1.08306   1.00
C3       0.21713    0.26099    0.91694   1.00
H1       0.31329    0.24229    1.02888   1.00
H1       0.30867    0.22504    0.97112   1.00
C5       0.17989    0.26569    1.02065   1.00
C5       0.18143    0.27146    0.97935   1.00
H1       0.31204    0.23980    1.09886   1.00
H1       0.30883    0.22782    0.90114   1.00
H1       0.19046    0.26236    1.10053   1.00
H1       0.19225    0.26906    0.89947   1.00
C6       0.14088    0.26654    1.04234   1.00
C6       0.14723    0.29022    0.95766   1.00
H2       0.11718    0.25493    1.02358   1.00
H2       0.14052    0.24620    1.06737   1.00
C6       0.13152    0.30778    1.05724   1.00
H2       0.13250    0.31212    0.97642   1.00
H2       0.15708    0.30802    0.93263   1.00
C6       0.11850    0.25919    0.94276   1.00
H2       0.13070    0.32905    1.03274   1.00
C6       0.09229    0.30825    1.07832   1.00
H2       0.15480    0.31774    1.07760   1.00
C6       0.08429    0.27839    0.92168   1.00
H2       0.13369    0.23892    0.92240   1.00
H2       0.10716    0.24117    0.96726   1.00
H2       0.06850    0.29921    1.05822   1.00
H2       0.09281    0.28820    1.10380   1.00
H2       0.08589    0.33818    1.08898   1.00
H2       0.06821    0.29811    0.94178   1.00
H2       0.09476    0.29549    0.89620   1.00
H2       0.06378    0.25566    0.91102   1.00
C4       0.25075    0.52067    0.75020   1.00
C4       0.24925    0.47933    0.74980   1.00
C3       0.24520    0.54244    0.78511   1.00
C3       0.23661    0.45756    0.78281   1.00
C4       0.25766    0.54150    0.71500   1.00
C4       0.26086    0.45850    0.71586   1.00
C2       0.24982    0.60352    0.75060   1.00
C2       0.24985    0.39648    0.75061   1.00
C3       0.24441    0.58310    0.78504   1.00
C3       0.23732    0.41690    0.78314   1.00
C3       0.25691    0.58306    0.71604   1.00
C3       0.26099    0.41694    0.71713   1.00
H1       0.24229    0.52888    0.81329   1.00
H1       0.22504    0.47112    0.80867   1.00
C5       0.26569    0.52065    0.67989   1.00
C5       0.27146    0.47935    0.68143   1.00
H1       0.23980    0.59886    0.81204   1.00
H1       0.22782    0.40114    0.80883   1.00
H1       0.26236    0.60053    0.69046   1.00
H1       0.26906    0.39947    0.69225   1.00
C6       0.26654    0.54234    0.64088   1.00
C6       0.29022    0.45766    0.64723   1.00
H2       0.25493    0.52358    0.61718   1.00
H2       0.24620    0.56737    0.64052   1.00
C6       0.30778    0.55724    0.63152   1.00
H2       0.31212    0.47642    0.63250   1.00
H2       0.30802    0.43263    0.65708   1.00
C6       0.25919    0.44276    0.61850   1.00
H2       0.32905    0.53274    0.63070   1.00
C6       0.30825    0.57832    0.59229   1.00
H2       0.31774    0.57760    0.65480   1.00
C6       0.27839    0.42168    0.58429   1.00
H2       0.23892    0.42240    0.63369   1.00
H2       0.24117    0.46726    0.60716   1.00
H2       0.29921    0.55822    0.56850   1.00
H2       0.28820    0.60380    0.59281   1.00
H2       0.33818    0.58898    0.58589   1.00
H2       0.29811    0.44178    0.56821   1.00
H2       0.29549    0.39620    0.59476   1.00
H2       0.25566    0.41102    0.56378   1.00
C4       -0.02067   0.25020    0.74925   1.00
C4       0.02067    0.24980    0.75075   1.00
C3       -0.04244   0.28511    0.75480   1.00
C3       0.04244    0.28281    0.76339   1.00
C4       -0.04150   0.21500    0.74234   1.00
C4       0.04150    0.21586    0.73914   1.00
C2       -0.10352   0.25060    0.75018   1.00
C2       0.10352    0.25061    0.75015   1.00
C3       -0.08310   0.28504    0.75559   1.00
C3       0.08310    0.28314    0.76268   1.00
C3       -0.08306   0.21604    0.74309   1.00
C3       0.08306    0.21713    0.73901   1.00
H1       -0.02888   0.31329    0.75771   1.00
H1       0.02888    0.30867    0.77496   1.00
C5       -0.02065   0.17989    0.73431   1.00
C5       0.02065    0.18143    0.72854   1.00
H1       -0.09886   0.31204    0.76020   1.00
H1       0.09886    0.30883    0.77218   1.00
H1       -0.10053   0.19046    0.73764   1.00
H1       0.10053    0.19225    0.73094   1.00
C6       -0.04234   0.14088    0.73346   1.00
C6       0.04234    0.14723    0.70978   1.00
H2       -0.02358   0.11718    0.74507   1.00
H2       -0.06737   0.14052    0.75380   1.00
C6       -0.05724   0.13152    0.69222   1.00
H2       0.02358    0.13250    0.68788   1.00
H2       0.06737    0.15708    0.69198   1.00
C6       0.05724    0.11850    0.74081   1.00
H2       -0.03274   0.13070    0.67095   1.00
C6       -0.07832   0.09229    0.69175   1.00
H2       -0.07760   0.15480    0.68226   1.00
C6       0.07832    0.08429    0.72161   1.00
H2       0.07760    0.13369    0.76108   1.00
H2       0.03274    0.10716    0.75883   1.00
H2       -0.05822   0.06850    0.70079   1.00
H2       -0.10380   0.09281    0.71180   1.00
H2       -0.08898   0.08589    0.66182   1.00
H2       0.05822    0.06821    0.70189   1.00
H2       0.10380    0.09476    0.70451   1.00
H2       0.08898    0.06378    0.74434   1.00
C4       0.52067    0.25020    0.75075   1.00
C4       0.47933    0.24980    0.74925   1.00
C3       0.54244    0.28511    0.74520   1.00
C3       0.45756    0.28281    0.73661   1.00
C4       0.54150    0.21500    0.75766   1.00
C4       0.45850    0.21586    0.76086   1.00
C2       0.60352    0.25060    0.74982   1.00
C2       0.39648    0.25061    0.74985   1.00
C3       0.58310    0.28504    0.74441   1.00
C3       0.41690    0.28314    0.73732   1.00
C3       0.58306    0.21604    0.75691   1.00
C3       0.41694    0.21713    0.76099   1.00
H1       0.52888    0.31329    0.74229   1.00
H1       0.47112    0.30867    0.72504   1.00
C5       0.52065    0.17989    0.76569   1.00
C5       0.47935    0.18143    0.77146   1.00
H1       0.59886    0.31204    0.73980   1.00
H1       0.40114    0.30883    0.72782   1.00
H1       0.60053    0.19046    0.76236   1.00
H1       0.39947    0.19225    0.76906   1.00
C6       0.54234    0.14088    0.76654   1.00
C6       0.45766    0.14723    0.79022   1.00
H2       0.52358    0.11718    0.75493   1.00
H2       0.56737    0.14052    0.74620   1.00
C6       0.55724    0.13152    0.80778   1.00
H2       0.47642    0.13250    0.81212   1.00
H2       0.43263    0.15708    0.80802   1.00
C6       0.44276    0.11850    0.75919   1.00
H2       0.53274    0.13070    0.82905   1.00
C6       0.57832    0.09229    0.80825   1.00
H2       0.57760    0.15480    0.81774   1.00
C6       0.42168    0.08429    0.77839   1.00
H2       0.42240    0.13369    0.73892   1.00
H2       0.46726    0.10716    0.74117   1.00
H2       0.55822    0.06850    0.79921   1.00
H2       0.60380    0.09281    0.78820   1.00
H2       0.58898    0.08589    0.83818   1.00
H2       0.44178    0.06821    0.79811   1.00
H2       0.39620    0.09476    0.79549   1.00
H2       0.41102    0.06378    0.75566   1.00
C4       0.24925    -0.02067   0.75020   1.00
C4       0.25075    0.02067    0.74980   1.00
C3       0.25480    -0.04244   0.78511   1.00
C3       0.26339    0.04244    0.78281   1.00
C4       0.24234    -0.04150   0.71500   1.00
C4       0.23914    0.04150    0.71586   1.00
C2       0.25018    -0.10352   0.75060   1.00
C2       0.25015    0.10352    0.75061   1.00
C3       0.25559    -0.08310   0.78504   1.00
C3       0.26268    0.08310    0.78314   1.00
C3       0.24309    -0.08306   0.71604   1.00
C3       0.23901    0.08306    0.71713   1.00
H1       0.25771    -0.02888   0.81329   1.00
H1       0.27496    0.02888    0.80867   1.00
C5       0.23431    -0.02065   0.67989   1.00
C5       0.22854    0.02065    0.68143   1.00
H1       0.26020    -0.09886   0.81204   1.00
H1       0.27218    0.09886    0.80883   1.00
H1       0.23764    -0.10053   0.69046   1.00
H1       0.23094    0.10053    0.69225   1.00
C6       0.23346    -0.04234   0.64088   1.00
C6       0.20978    0.04234    0.64723   1.00
H2       0.24507    -0.02358   0.61718   1.00
H2       0.25380    -0.06737   0.64052   1.00
C6       0.19222    -0.05724   0.63152   1.00
H2       0.18788    0.02358    0.63250   1.00
H2       0.19198    0.06737    0.65708   1.00
C6       0.24081    0.05724    0.61850   1.00
H2       0.17095    -0.03274   0.63070   1.00
C6       0.19175    -0.07832   0.59229   1.00
H2       0.18226    -0.07760   0.65480   1.00
C6       0.22161    0.07832    0.58429   1.00
H2       0.26108    0.07760    0.63369   1.00
H2       0.25883    0.03274    0.60716   1.00
H2       0.20079    -0.05822   0.56850   1.00
H2       0.21180    -0.10380   0.59281   1.00
H2       0.16182    -0.08898   0.58589   1.00
H2       0.20189    0.05822    0.56821   1.00
H2       0.20451    0.10380    0.59476   1.00
H2       0.24434    0.08898    0.56378   1.00
C4       0.25020    0.24925    0.47933   1.00
C4       0.24980    0.25075    0.52067   1.00
C3       0.28511    0.25480    0.45756   1.00
C3       0.28281    0.26339    0.54244   1.00
C4       0.21500    0.24234    0.45850   1.00
C4       0.21586    0.23914    0.54150   1.00
C2       0.25060    0.25018    0.39648   1.00
C2       0.25061    0.25015    0.60352   1.00
C3       0.28504    0.25559    0.41690   1.00
C3       0.28314    0.26268    0.58310   1.00
C3       0.21604    0.24309    0.41694   1.00
C3       0.21713    0.23901    0.58306   1.00
H1       0.31329    0.25771    0.47112   1.00
H1       0.30867    0.27496    0.52888   1.00
C5       0.17989    0.23431    0.47935   1.00
C5       0.18143    0.22854    0.52065   1.00
H1       0.31204    0.26020    0.40114   1.00
H1       0.30883    0.27218    0.59886   1.00
H1       0.19046    0.23764    0.39947   1.00
H1       0.19225    0.23094    0.60053   1.00
C6       0.14088    0.23346    0.45766   1.00
C6       0.14723    0.20978    0.54234   1.00
H2       0.11718    0.24507    0.47642   1.00
H2       0.14052    0.25380    0.43263   1.00
C6       0.13152    0.19222    0.44276   1.00
H2       0.13250    0.18788    0.52358   1.00
H2       0.15708    0.19198    0.56737   1.00
C6       0.11850    0.24081    0.55724   1.00
H2       0.13070    0.17095    0.46726   1.00
C6       0.09229    0.19175    0.42168   1.00
H2       0.15480    0.18226    0.42240   1.00
C6       0.08429    0.22161    0.57832   1.00
H2       0.13369    0.26108    0.57760   1.00
H2       0.10716    0.25883    0.53274   1.00
H2       0.06850    0.20079    0.44178   1.00
H2       0.09281    0.21180    0.39620   1.00
H2       0.08589    0.16182    0.41102   1.00
H2       0.06821    0.20189    0.55822   1.00
H2       0.09476    0.20451    0.60380   1.00
H2       0.06378    0.24434    0.58898   1.00
C4       0.25020    0.75075    0.52067   1.00
C4       0.24980    0.74925    0.47933   1.00
C3       0.28511    0.74520    0.54244   1.00
C3       0.28281    0.73661    0.45756   1.00
C4       0.21500    0.75766    0.54150   1.00
C4       0.21586    0.76086    0.45850   1.00
C2       0.25060    0.74982    0.60352   1.00
C2       0.25061    0.74985    0.39648   1.00
C3       0.28504    0.74441    0.58310   1.00
C3       0.28314    0.73732    0.41690   1.00
C3       0.21604    0.75691    0.58306   1.00
C3       0.21713    0.76099    0.41694   1.00
H1       0.31329    0.74229    0.52888   1.00
H1       0.30867    0.72504    0.47112   1.00
C5       0.17989    0.76569    0.52065   1.00
C5       0.18143    0.77146    0.47935   1.00
H1       0.31204    0.73980    0.59886   1.00
H1       0.30883    0.72782    0.40114   1.00
H1       0.19046    0.76236    0.60053   1.00
H1       0.19225    0.76906    0.39947   1.00
C6       0.14088    0.76654    0.54234   1.00
C6       0.14723    0.79022    0.45766   1.00
H2       0.11718    0.75493    0.52358   1.00
H2       0.14052    0.74620    0.56737   1.00
C6       0.13152    0.80778    0.55724   1.00
H2       0.13250    0.81212    0.47642   1.00
H2       0.15708    0.80802    0.43263   1.00
C6       0.11850    0.75919    0.44276   1.00
H2       0.13070    0.82905    0.53274   1.00
C6       0.09229    0.80825    0.57832   1.00
H2       0.15480    0.81774    0.57760   1.00
C6       0.08429    0.77839    0.42168   1.00
H2       0.13369    0.73892    0.42240   1.00
H2       0.10716    0.74117    0.46726   1.00
H2       0.06850    0.79921    0.55822   1.00
H2       0.09281    0.78820    0.60380   1.00
H2       0.08589    0.83818    0.58898   1.00
H2       0.06821    0.79811    0.44178   1.00
H2       0.09476    0.79549    0.39620   1.00
H2       0.06378    0.75566    0.41102   1.00
C4       0.25075    1.02067    0.25020   1.00
C4       0.24925    0.97933    0.24980   1.00
C3       0.24520    1.04244    0.28511   1.00
C3       0.23661    0.95756    0.28281   1.00
C4       0.25766    1.04150    0.21500   1.00
C4       0.26086    0.95850    0.21586   1.00
C2       0.24982    1.10352    0.25060   1.00
C2       0.24985    0.89648    0.25061   1.00
C3       0.24441    1.08310    0.28504   1.00
C3       0.23732    0.91690    0.28314   1.00
C3       0.25691    1.08306    0.21604   1.00
C3       0.26099    0.91694    0.21713   1.00
H1       0.24229    1.02888    0.31329   1.00
H1       0.22504    0.97112    0.30867   1.00
C5       0.26569    1.02065    0.17989   1.00
C5       0.27146    0.97935    0.18143   1.00
H1       0.23980    1.09886    0.31204   1.00
H1       0.22782    0.90114    0.30883   1.00
H1       0.26236    1.10053    0.19046   1.00
H1       0.26906    0.89947    0.19225   1.00
C6       0.26654    1.04234    0.14088   1.00
C6       0.29022    0.95766    0.14723   1.00
H2       0.25493    1.02358    0.11718   1.00
H2       0.24620    1.06737    0.14052   1.00
C6       0.30778    1.05724    0.13152   1.00
H2       0.31212    0.97642    0.13250   1.00
H2       0.30802    0.93263    0.15708   1.00
C6       0.25919    0.94276    0.11850   1.00
H2       0.32905    1.03274    0.13070   1.00
C6       0.30825    1.07832    0.09229   1.00
H2       0.31774    1.07760    0.15480   1.00
C6       0.27839    0.92168    0.08429   1.00
H2       0.23892    0.92240    0.13369   1.00
H2       0.24117    0.96726    0.10716   1.00
H2       0.29921    1.05822    0.06850   1.00
H2       0.28820    1.10380    0.09281   1.00
H2       0.33818    1.08898    0.08589   1.00
H2       0.29811    0.94178    0.06821   1.00
H2       0.29549    0.89620    0.09476   1.00
H2       0.25566    0.91102    0.06378   1.00
C4       -0.02067   0.75020    0.24925   1.00
C4       0.02067    0.74980    0.25075   1.00
C3       -0.04244   0.78511    0.25480   1.00
C3       0.04244    0.78281    0.26339   1.00
C4       -0.04150   0.71500    0.24234   1.00
C4       0.04150    0.71586    0.23914   1.00
C2       -0.10352   0.75060    0.25018   1.00
C2       0.10352    0.75061    0.25015   1.00
C3       -0.08310   0.78504    0.25559   1.00
C3       0.08310    0.78314    0.26268   1.00
C3       -0.08306   0.71604    0.24309   1.00
C3       0.08306    0.71713    0.23901   1.00
H1       -0.02888   0.81329    0.25771   1.00
H1       0.02888    0.80867    0.27496   1.00
C5       -0.02065   0.67989    0.23431   1.00
C5       0.02065    0.68143    0.22854   1.00
H1       -0.09886   0.81204    0.26020   1.00
H1       0.09886    0.80883    0.27218   1.00
H1       -0.10053   0.69046    0.23764   1.00
H1       0.10053    0.69225    0.23094   1.00
C6       -0.04234   0.64088    0.23346   1.00
C6       0.04234    0.64723    0.20978   1.00
H2       -0.02358   0.61718    0.24507   1.00
H2       -0.06737   0.64052    0.25380   1.00
C6       -0.05724   0.63152    0.19222   1.00
H2       0.02358    0.63250    0.18788   1.00
H2       0.06737    0.65708    0.19198   1.00
C6       0.05724    0.61850    0.24081   1.00
H2       -0.03274   0.63070    0.17095   1.00
C6       -0.07832   0.59229    0.19175   1.00
H2       -0.07760   0.65480    0.18226   1.00
C6       0.07832    0.58429    0.22161   1.00
H2       0.07760    0.63369    0.26108   1.00
H2       0.03274    0.60716    0.25883   1.00
H2       -0.05822   0.56850    0.20079   1.00
H2       -0.10380   0.59281    0.21180   1.00
H2       -0.08898   0.58589    0.16182   1.00
H2       0.05822    0.56821    0.20189   1.00
H2       0.10380    0.59476    0.20451   1.00
H2       0.08898    0.56378    0.24434   1.00
C4       0.52067    0.75020    0.25075   1.00
C4       0.47933    0.74980    0.24925   1.00
C3       0.54244    0.78511    0.24520   1.00
C3       0.45756    0.78281    0.23661   1.00
C4       0.54150    0.71500    0.25766   1.00
C4       0.45850    0.71586    0.26086   1.00
C2       0.60352    0.75060    0.24982   1.00
C2       0.39648    0.75061    0.24985   1.00
C3       0.58310    0.78504    0.24441   1.00
C3       0.41690    0.78314    0.23732   1.00
C3       0.58306    0.71604    0.25691   1.00
C3       0.41694    0.71713    0.26099   1.00
H1       0.52888    0.81329    0.24229   1.00
H1       0.47112    0.80867    0.22504   1.00
C5       0.52065    0.67989    0.26569   1.00
C5       0.47935    0.68143    0.27146   1.00
H1       0.59886    0.81204    0.23980   1.00
H1       0.40114    0.80883    0.22782   1.00
H1       0.60053    0.69046    0.26236   1.00
H1       0.39947    0.69225    0.26906   1.00
C6       0.54234    0.64088    0.26654   1.00
C6       0.45766    0.64723    0.29022   1.00
H2       0.52358    0.61718    0.25493   1.00
H2       0.56737    0.64052    0.24620   1.00
C6       0.55724    0.63152    0.30778   1.00
H2       0.47642    0.63250    0.31212   1.00
H2       0.43263    0.65708    0.30802   1.00
C6       0.44276    0.61850    0.25919   1.00
H2       0.53274    0.63070    0.32905   1.00
C6       0.57832    0.59229    0.30825   1.00
H2       0.57760    0.65480    0.31774   1.00
C6       0.42168    0.58429    0.27839   1.00
H2       0.42240    0.63369    0.23892   1.00
H2       0.46726    0.60716    0.24117   1.00
H2       0.55822    0.56850    0.29921   1.00
H2       0.60380    0.59281    0.28820   1.00
H2       0.58898    0.58589    0.33818   1.00
H2       0.44178    0.56821    0.29811   1.00
H2       0.39620    0.59476    0.29549   1.00
H2       0.41102    0.56378    0.25566   1.00
C4       0.24925    0.47933    0.25020   1.00
C4       0.25075    0.52067    0.24980   1.00
C3       0.25480    0.45756    0.28511   1.00
C3       0.26339    0.54244    0.28281   1.00
C4       0.24234    0.45850    0.21500   1.00
C4       0.23914    0.54150    0.21586   1.00
C2       0.25018    0.39648    0.25060   1.00
C2       0.25015    0.60352    0.25061   1.00
C3       0.25559    0.41690    0.28504   1.00
C3       0.26268    0.58310    0.28314   1.00
C3       0.24309    0.41694    0.21604   1.00
C3       0.23901    0.58306    0.21713   1.00
H1       0.25771    0.47112    0.31329   1.00
H1       0.27496    0.52888    0.30867   1.00
C5       0.23431    0.47935    0.17989   1.00
C5       0.22854    0.52065    0.18143   1.00
H1       0.26020    0.40114    0.31204   1.00
H1       0.27218    0.59886    0.30883   1.00
H1       0.23764    0.39947    0.19046   1.00
H1       0.23094    0.60053    0.19225   1.00
C6       0.23346    0.45766    0.14088   1.00
C6       0.20978    0.54234    0.14723   1.00
H2       0.24507    0.47642    0.11718   1.00
H2       0.25380    0.43263    0.14052   1.00
C6       0.19222    0.44276    0.13152   1.00
H2       0.18788    0.52358    0.13250   1.00
H2       0.19198    0.56737    0.15708   1.00
C6       0.24081    0.55724    0.11850   1.00
H2       0.17095    0.46726    0.13070   1.00
C6       0.19175    0.42168    0.09229   1.00
H2       0.18226    0.42240    0.15480   1.00
C6       0.22161    0.57832    0.08429   1.00
H2       0.26108    0.57760    0.13369   1.00
H2       0.25883    0.53274    0.10716   1.00
H2       0.20079    0.44178    0.06850   1.00
H2       0.21180    0.39620    0.09281   1.00
H2       0.16182    0.41102    0.08589   1.00
H2       0.20189    0.55822    0.06821   1.00
H2       0.20451    0.60380    0.09476   1.00
H2       0.24434    0.58898    0.06378   1.00
C4       0.25020    0.74925    -0.02067   1.00
C4       0.24980    0.75075    0.02067   1.00
C3       0.28511    0.75480    -0.04244   1.00
C3       0.28281    0.76339    0.04244   1.00
C4       0.21500    0.74234    -0.04150   1.00
C4       0.21586    0.73914    0.04150   1.00
C2       0.25060    0.75018    -0.10352   1.00
C2       0.25061    0.75015    0.10352   1.00
C3       0.28504    0.75559    -0.08310   1.00
C3       0.28314    0.76268    0.08310   1.00
C3       0.21604    0.74309    -0.08306   1.00
C3       0.21713    0.73901    0.08306   1.00
H1       0.31329    0.75771    -0.02888   1.00
H1       0.30867    0.77496    0.02888   1.00
C5       0.17989    0.73431    -0.02065   1.00
C5       0.18143    0.72854    0.02065   1.00
H1       0.31204    0.76020    -0.09886   1.00
H1       0.30883    0.77218    0.09886   1.00
H1       0.19046    0.73764    -0.10053   1.00
H1       0.19225    0.73094    0.10053   1.00
C6       0.14088    0.73346    -0.04234   1.00
C6       0.14723    0.70978    0.04234   1.00
H2       0.11718    0.74507    -0.02358   1.00
H2       0.14052    0.75380    -0.06737   1.00
C6       0.13152    0.69222    -0.05724   1.00
H2       0.13250    0.68788    0.02358   1.00
H2       0.15708    0.69198    0.06737   1.00
C6       0.11850    0.74081    0.05724   1.00
H2       0.13070    0.67095    -0.03274   1.00
C6       0.09229    0.69175    -0.07832   1.00
H2       0.15480    0.68226    -0.07760   1.00
C6       0.08429    0.72161    0.07832   1.00
H2       0.13369    0.76108    0.07760   1.00
H2       0.10716    0.75883    0.03274   1.00
H2       0.06850    0.70079    -0.05822   1.00
H2       0.09281    0.71180    -0.10380   1.00
H2       0.08589    0.66182    -0.08898   1.00
H2       0.06821    0.70189    0.05822   1.00
H2       0.09476    0.70451    0.10380   1.00
H2       0.06378    0.74434    0.08898   1.00
C4       0.75020    0.25075    0.52067   1.00
C4       0.74980    0.24925    0.47933   1.00
C3       0.78511    0.24520    0.54244   1.00
C3       0.78281    0.23661    0.45756   1.00
C4       0.71500    0.25766    0.54150   1.00
C4       0.71586    0.26086    0.45850   1.00
C2       0.75060    0.24982    0.60352   1.00
C2       0.75061    0.24985    0.39648   1.00
C3       0.78504    0.24441    0.58310   1.00
C3       0.78314    0.23732    0.41690   1.00
C3       0.71604    0.25691    0.58306   1.00
C3       0.71713    0.26099    0.41694   1.00
H1       0.81329    0.24229    0.52888   1.00
H1       0.80867    0.22504    0.47112   1.00
C5       0.67989    0.26569    0.52065   1.00
C5       0.68143    0.27146    0.47935   1.00
H1       0.81204    0.23980    0.59886   1.00
H1       0.80883    0.22782    0.40114   1.00
H1       0.69046    0.26236    0.60053   1.00
H1       0.69225    0.26906    0.39947   1.00
C6       0.64088    0.26654    0.54234   1.00
C6       0.64723    0.29022    0.45766   1.00
H2       0.61718    0.25493    0.52358   1.00
H2       0.64052    0.24620    0.56737   1.00
C6       0.63152    0.30778    0.55724   1.00
H2       0.63250    0.31212    0.47642   1.00
H2       0.65708    0.30802    0.43263   1.00
C6       0.61850    0.25919    0.44276   1.00
H2       0.63070    0.32905    0.53274   1.00
C6       0.59229    0.30825    0.57832   1.00
H2       0.65480    0.31774    0.57760   1.00
C6       0.58429    0.27839    0.42168   1.00
H2       0.63369    0.23892    0.42240   1.00
H2       0.60716    0.24117    0.46726   1.00
H2       0.56850    0.29921    0.55822   1.00
H2       0.59281    0.28820    0.60380   1.00
H2       0.58589    0.33818    0.58898   1.00
H2       0.56821    0.29811    0.44178   1.00
H2       0.59476    0.29549    0.39620   1.00
H2       0.56378    0.25566    0.41102   1.00
C4       0.75075    0.52067    0.25020   1.00
C4       0.74925    0.47933    0.24980   1.00
C3       0.74520    0.54244    0.28511   1.00
C3       0.73661    0.45756    0.28281   1.00
C4       0.75766    0.54150    0.21500   1.00
C4       0.76086    0.45850    0.21586   1.00
C2       0.74982    0.60352    0.25060   1.00
C2       0.74985    0.39648    0.25061   1.00
C3       0.74441    0.58310    0.28504   1.00
C3       0.73732    0.41690    0.28314   1.00
C3       0.75691    0.58306    0.21604   1.00
C3       0.76099    0.41694    0.21713   1.00
H1       0.74229    0.52888    0.31329   1.00
H1       0.72504    0.47112    0.30867   1.00
C5       0.76569    0.52065    0.17989   1.00
C5       0.77146    0.47935    0.18143   1.00
H1       0.73980    0.59886    0.31204   1.00
H1       0.72782    0.40114    0.30883   1.00
H1       0.76236    0.60053    0.19046   1.00
H1       0.76906    0.39947    0.19225   1.00
C6       0.76654    0.54234    0.14088   1.00
C6       0.79022    0.45766    0.14723   1.00
H2       0.75493    0.52358    0.11718   1.00
H2       0.74620    0.56737    0.14052   1.00
C6       0.80778    0.55724    0.13152   1.00
H2       0.81212    0.47642    0.13250   1.00
H2       0.80802    0.43263    0.15708   1.00
C6       0.75919    0.44276    0.11850   1.00
H2       0.82905    0.53274    0.13070   1.00
C6       0.80825    0.57832    0.09229   1.00
H2       0.81774    0.57760    0.15480   1.00
C6       0.77839    0.42168    0.08429   1.00
H2       0.73892    0.42240    0.13369   1.00
H2       0.74117    0.46726    0.10716   1.00
H2       0.79921    0.55822    0.06850   1.00
H2       0.78820    0.60380    0.09281   1.00
H2       0.83818    0.58898    0.08589   1.00
H2       0.79811    0.44178    0.06821   1.00
H2       0.79549    0.39620    0.09476   1.00
H2       0.75566    0.41102    0.06378   1.00
C4       0.47933    0.25020    0.24925   1.00
C4       0.52067    0.24980    0.25075   1.00
C3       0.45756    0.28511    0.25480   1.00
C3       0.54244    0.28281    0.26339   1.00
C4       0.45850    0.21500    0.24234   1.00
C4       0.54150    0.21586    0.23914   1.00
C2       0.39648    0.25060    0.25018   1.00
C2       0.60352    0.25061    0.25015   1.00
C3       0.41690    0.28504    0.25559   1.00
C3       0.58310    0.28314    0.26268   1.00
C3       0.41694    0.21604    0.24309   1.00
C3       0.58306    0.21713    0.23901   1.00
H1       0.47112    0.31329    0.25771   1.00
H1       0.52888    0.30867    0.27496   1.00
C5       0.47935    0.17989    0.23431   1.00
C5       0.52065    0.18143    0.22854   1.00
H1       0.40114    0.31204    0.26020   1.00
H1       0.59886    0.30883    0.27218   1.00
H1       0.39947    0.19046    0.23764   1.00
H1       0.60053    0.19225    0.23094   1.00
C6       0.45766    0.14088    0.23346   1.00
C6       0.54234    0.14723    0.20978   1.00
H2       0.47642    0.11718    0.24507   1.00
H2       0.43263    0.14052    0.25380   1.00
C6       0.44276    0.13152    0.19222   1.00
H2       0.52358    0.13250    0.18788   1.00
H2       0.56737    0.15708    0.19198   1.00
C6       0.55724    0.11850    0.24081   1.00
H2       0.46726    0.13070    0.17095   1.00
C6       0.42168    0.09229    0.19175   1.00
H2       0.42240    0.15480    0.18226   1.00
C6       0.57832    0.08429    0.22161   1.00
H2       0.57760    0.13369    0.26108   1.00
H2       0.53274    0.10716    0.25883   1.00
H2       0.44178    0.06850    0.20079   1.00
H2       0.39620    0.09281    0.21180   1.00
H2       0.41102    0.08589    0.16182   1.00
H2       0.55822    0.06821    0.20189   1.00
H2       0.60380    0.09476    0.20451   1.00
H2       0.58898    0.06378    0.24434   1.00
C4       1.02067    0.25020    0.25075   1.00
C4       0.97933    0.24980    0.24925   1.00
C3       1.04244    0.28511    0.24520   1.00
C3       0.95756    0.28281    0.23661   1.00
C4       1.04150    0.21500    0.25766   1.00
C4       0.95850    0.21586    0.26086   1.00
C2       1.10352    0.25060    0.24982   1.00
C2       0.89648    0.25061    0.24985   1.00
C3       1.08310    0.28504    0.24441   1.00
C3       0.91690    0.28314    0.23732   1.00
C3       1.08306    0.21604    0.25691   1.00
C3       0.91694    0.21713    0.26099   1.00
H1       1.02888    0.31329    0.24229   1.00
H1       0.97112    0.30867    0.22504   1.00
C5       1.02065    0.17989    0.26569   1.00
C5       0.97935    0.18143    0.27146   1.00
H1       1.09886    0.31204    0.23980   1.00
H1       0.90114    0.30883    0.22782   1.00
H1       1.10053    0.19046    0.26236   1.00
H1       0.89947    0.19225    0.26906   1.00
C6       1.04234    0.14088    0.26654   1.00
C6       0.95766    0.14723    0.29022   1.00
H2       1.02358    0.11718    0.25493   1.00
H2       1.06737    0.14052    0.24620   1.00
C6       1.05724    0.13152    0.30778   1.00
H2       0.97642    0.13250    0.31212   1.00
H2       0.93263    0.15708    0.30802   1.00
C6       0.94276    0.11850    0.25919   1.00
H2       1.03274    0.13070    0.32905   1.00
C6       1.07832    0.09229    0.30825   1.00
H2       1.07760    0.15480    0.31774   1.00
C6       0.92168    0.08429    0.27839   1.00
H2       0.92240    0.13369    0.23892   1.00
H2       0.96726    0.10716    0.24117   1.00
H2       1.05822    0.06850    0.29921   1.00
H2       1.10380    0.09281    0.28820   1.00
H2       1.08898    0.08589    0.33818   1.00
H2       0.94178    0.06821    0.29811   1.00
H2       0.89620    0.09476    0.29549   1.00
H2       0.91102    0.06378    0.25566   1.00
C4       0.74925    -0.02067   0.25020   1.00
C4       0.75075    0.02067    0.24980   1.00
C3       0.75480    -0.04244   0.28511   1.00
C3       0.76339    0.04244    0.28281   1.00
C4       0.74234    -0.04150   0.21500   1.00
C4       0.73914    0.04150    0.21586   1.00
C2       0.75018    -0.10352   0.25060   1.00
C2       0.75015    0.10352    0.25061   1.00
C3       0.75559    -0.08310   0.28504   1.00
C3       0.76268    0.08310    0.28314   1.00
C3       0.74309    -0.08306   0.21604   1.00
C3       0.73901    0.08306    0.21713   1.00
H1       0.75771    -0.02888   0.31329   1.00
H1       0.77496    0.02888    0.30867   1.00
C5       0.73431    -0.02065   0.17989   1.00
C5       0.72854    0.02065    0.18143   1.00
H1       0.76020    -0.09886   0.31204   1.00
H1       0.77218    0.09886    0.30883   1.00
H1       0.73764    -0.10053   0.19046   1.00
H1       0.73094    0.10053    0.19225   1.00
C6       0.73346    -0.04234   0.14088   1.00
C6       0.70978    0.04234    0.14723   1.00
H2       0.74507    -0.02358   0.11718   1.00
H2       0.75380    -0.06737   0.14052   1.00
C6       0.69222    -0.05724   0.13152   1.00
H2       0.68788    0.02358    0.13250   1.00
H2       0.69198    0.06737    0.15708   1.00
C6       0.74081    0.05724    0.11850   1.00
H2       0.67095    -0.03274   0.13070   1.00
C6       0.69175    -0.07832   0.09229   1.00
H2       0.68226    -0.07760   0.15480   1.00
C6       0.72161    0.07832    0.08429   1.00
H2       0.76108    0.07760    0.13369   1.00
H2       0.75883    0.03274    0.10716   1.00
H2       0.70079    -0.05822   0.06850   1.00
H2       0.71180    -0.10380   0.09281   1.00
H2       0.66182    -0.08898   0.08589   1.00
H2       0.70189    0.05822    0.06821   1.00
H2       0.70451    0.10380    0.09476   1.00
H2       0.74434    0.08898    0.06378   1.00
C4       0.75020    0.24925    -0.02067   1.00
C4       0.74980    0.25075    0.02067   1.00
C3       0.78511    0.25480    -0.04244   1.00
C3       0.78281    0.26339    0.04244   1.00
C4       0.71500    0.24234    -0.04150   1.00
C4       0.71586    0.23914    0.04150   1.00
C2       0.75060    0.25018    -0.10352   1.00
C2       0.75061    0.25015    0.10352   1.00
C3       0.78504    0.25559    -0.08310   1.00
C3       0.78314    0.26268    0.08310   1.00
C3       0.71604    0.24309    -0.08306   1.00
C3       0.71713    0.23901    0.08306   1.00
H1       0.81329    0.25771    -0.02888   1.00
H1       0.80867    0.27496    0.02888   1.00
C5       0.67989    0.23431    -0.02065   1.00
C5       0.68143    0.22854    0.02065   1.00
H1       0.81204    0.26020    -0.09886   1.00
H1       0.80883    0.27218    0.09886   1.00
H1       0.69046    0.23764    -0.10053   1.00
H1       0.69225    0.23094    0.10053   1.00
C6       0.64088    0.23346    -0.04234   1.00
C6       0.64723    0.20978    0.04234   1.00
H2       0.61718    0.24507    -0.02358   1.00
H2       0.64052    0.25380    -0.06737   1.00
C6       0.63152    0.19222    -0.05724   1.00
H2       0.63250    0.18788    0.02358   1.00
H2       0.65708    0.19198    0.06737   1.00
C6       0.61850    0.24081    0.05724   1.00
H2       0.63070    0.17095    -0.03274   1.00
C6       0.59229    0.19175    -0.07832   1.00
H2       0.65480    0.18226    -0.07760   1.00
C6       0.58429    0.22161    0.07832   1.00
H2       0.63369    0.26108    0.07760   1.00
H2       0.60716    0.25883    0.03274   1.00
H2       0.56850    0.20079    -0.05822   1.00
H2       0.59281    0.21180    -0.10380   1.00
H2       0.58589    0.16182    -0.08898   1.00
H2       0.56821    0.20189    0.05822   1.00
H2       0.59476    0.20451    0.10380   1.00
H2       0.56378    0.24434    0.08898   1.00
C4       0.91520    0.91575    1.18567   1.00
C4       0.91480    0.91425    1.14433   1.00
C3       0.95011    0.91020    1.20744   1.00
C3       0.94781    0.90161    1.12256   1.00
C4       0.88000    0.92266    1.20650   1.00
C4       0.88086    0.92586    1.12350   1.00
C2       0.91560    0.91482    1.26852   1.00
C2       0.91561    0.91485    1.06148   1.00
C3       0.95004    0.90941    1.24810   1.00
C3       0.94814    0.90232    1.08190   1.00
C3       0.88104    0.92191    1.24806   1.00
C3       0.88213    0.92599    1.08194   1.00
H1       0.97829    0.90729    1.19388   1.00
H1       0.97367    0.89004    1.13612   1.00
C5       0.84489    0.93069    1.18565   1.00
C5       0.84643    0.93646    1.14435   1.00
H1       0.97704    0.90480    1.26386   1.00
H1       0.97383    0.89282    1.06614   1.00
H1       0.85546    0.92736    1.26553   1.00
H1       0.85725    0.93406    1.06447   1.00
C6       0.80588    0.93154    1.20734   1.00
C6       0.81223    0.95522    1.12266   1.00
H2       0.78218    0.91993    1.18858   1.00
H2       0.80552    0.91120    1.23237   1.00
C6       0.79652    0.97278    1.22224   1.00
H2       0.79750    0.97712    1.14142   1.00
H2       0.82208    0.97302    1.09763   1.00
C6       0.78350    0.92419    1.10776   1.00
H2       0.79570    0.99405    1.19774   1.00
C6       0.75729    0.97325    1.24332   1.00
H2       0.81980    0.98274    1.24260   1.00
C6       0.74929    0.94339    1.08668   1.00
H2       0.79869    0.90392    1.08740   1.00
H2       0.77216    0.90617    1.13226   1.00
H2       0.73350    0.96421    1.22322   1.00
H2       0.75781    0.95320    1.26880   1.00
H2       0.75089    1.00318    1.25398   1.00
H2       0.73321    0.96311    1.10678   1.00
H2       0.75976    0.96049    1.06120   1.00
H2       0.72878    0.92066    1.07602   1.00
C4       0.91575    1.18567    0.91520   1.00
C4       0.91425    1.14433    0.91480   1.00
C3       0.91020    1.20744    0.95011   1.00
C3       0.90161    1.12256    0.94781   1.00
C4       0.92266    1.20650    0.88000   1.00
C4       0.92586    1.12350    0.88086   1.00
C2       0.91482    1.26852    0.91560   1.00
C2       0.91485    1.06148    0.91561   1.00
C3       0.90941    1.24810    0.95004   1.00
C3       0.90232    1.08190    0.94814   1.00
C3       0.92191    1.24806    0.88104   1.00
C3       0.92599    1.08194    0.88213   1.00
H1       0.90729    1.19388    0.97829   1.00
H1       0.89004    1.13612    0.97367   1.00
C5       0.93069    1.18565    0.84489   1.00
C5       0.93646    1.14435    0.84643   1.00
H1       0.90480    1.26386    0.97704   1.00
H1       0.89282    1.06614    0.97383   1.00
H1       0.92736    1.26553    0.85546   1.00
H1       0.93406    1.06447    0.85725   1.00
C6       0.93154    1.20734    0.80588   1.00
C6       0.95522    1.12266    0.81223   1.00
H2       0.91993    1.18858    0.78218   1.00
H2       0.91120    1.23237    0.80552   1.00
C6       0.97278    1.22224    0.79652   1.00
H2       0.97712    1.14142    0.79750   1.00
H2       0.97302    1.09763    0.82208   1.00
C6       0.92419    1.10776    0.78350   1.00
H2       0.99405    1.19774    0.79570   1.00
C6       0.97325    1.24332    0.75729   1.00
H2       0.98274    1.24260    0.81980   1.00
C6       0.94339    1.08668    0.74929   1.00
H2       0.90392    1.08740    0.79869   1.00
H2       0.90617    1.13226    0.77216   1.00
H2       0.96421    1.22322    0.73350   1.00
H2       0.95320    1.26880    0.75781   1.00
H2       1.00318    1.25398    0.75089   1.00
H2       0.96311    1.10678    0.73321   1.00
H2       0.96049    1.06120    0.75976   1.00
H2       0.92066    1.07602    0.72878   1.00
C4       0.64433    0.91520    0.91425   1.00
C4       0.68567    0.91480    0.91575   1.00
C3       0.62256    0.95011    0.91980   1.00
C3       0.70744    0.94781    0.92839   1.00
C4       0.62350    0.88000    0.90734   1.00
C4       0.70650    0.88086    0.90414   1.00
C2       0.56148    0.91560    0.91518   1.00
C2       0.76852    0.91561    0.91515   1.00
C3       0.58190    0.95004    0.92059   1.00
C3       0.74810    0.94814    0.92768   1.00
C3       0.58194    0.88104    0.90809   1.00
C3       0.74806    0.88213    0.90401   1.00
H1       0.63612    0.97829    0.92271   1.00
H1       0.69388    0.97367    0.93996   1.00
C5       0.64435    0.84489    0.89931   1.00
C5       0.68565    0.84643    0.89354   1.00
H1       0.56614    0.97704    0.92520   1.00
H1       0.76386    0.97383    0.93718   1.00
H1       0.56447    0.85546    0.90264   1.00
H1       0.76553    0.85725    0.89594   1.00
C6       0.62266    0.80588    0.89846   1.00
C6       0.70734    0.81223    0.87478   1.00
H2       0.64142    0.78218    0.91007   1.00
H2       0.59763    0.80552    0.91880   1.00
C6       0.60776    0.79652    0.85722   1.00
H2       0.68858    0.79750    0.85288   1.00
H2       0.73237    0.82208    0.85698   1.00
C6       0.72224    0.78350    0.90581   1.00
H2       0.63226    0.79570    0.83595   1.00
C6       0.58668    0.75729    0.85675   1.00
H2       0.58740    0.81980    0.84726   1.00
C6       0.74332    0.74929    0.88661   1.00
H2       0.74260    0.79869    0.92608   1.00
H2       0.69774    0.77216    0.92383   1.00
H2       0.60678    0.73350    0.86579   1.00
H2       0.56120    0.75781    0.87680   1.00
H2       0.57602    0.75089    0.82682   1.00
H2       0.72322    0.73321    0.86689   1.00
H2       0.76880    0.75976    0.86951   1.00
H2       0.75398    0.72878    0.90934   1.00
C4       1.18567    0.91520    0.91575   1.00
C4       1.14433    0.91480    0.91425   1.00
C3       1.20744    0.95011    0.91020   1.00
C3       1.12256    0.94781    0.90161   1.00
C4       1.20650    0.88000    0.92266   1.00
C4       1.12350    0.88086    0.92586   1.00
C2       1.26852    0.91560    0.91482   1.00
C2       1.06148    0.91561    0.91485   1.00
C3       1.24810    0.95004    0.90941   1.00
C3       1.08190    0.94814    0.90232   1.00
C3       1.24806    0.88104    0.92191   1.00
C3       1.08194    0.88213    0.92599   1.00
H1       1.19388    0.97829    0.90729   1.00
H1       1.13612    0.97367    0.89004   1.00
C5       1.18565    0.84489    0.93069   1.00
C5       1.14435    0.84643    0.93646   1.00
H1       1.26386    0.97704    0.90480   1.00
H1       1.06614    0.97383    0.89282   1.00
H1       1.26553    0.85546    0.92736   1.00
H1       1.06447    0.85725    0.93406   1.00
C6       1.20734    0.80588    0.93154   1.00
C6       1.12266    0.81223    0.95522   1.00
H2       1.18858    0.78218    0.91993   1.00
H2       1.23237    0.80552    0.91120   1.00
C6       1.22224    0.79652    0.97278   1.00
H2       1.14142    0.79750    0.97712   1.00
H2       1.09763    0.82208    0.97302   1.00
C6       1.10776    0.78350    0.92419   1.00
H2       1.19774    0.79570    0.99405   1.00
C6       1.24332    0.75729    0.97325   1.00
H2       1.24260    0.81980    0.98274   1.00
C6       1.08668    0.74929    0.94339   1.00
H2       1.08740    0.79869    0.90392   1.00
H2       1.13226    0.77216    0.90617   1.00
H2       1.22322    0.73350    0.96421   1.00
H2       1.26880    0.75781    0.95320   1.00
H2       1.25398    0.75089    1.00318   1.00
H2       1.10678    0.73321    0.96311   1.00
H2       1.06120    0.75976    0.96049   1.00
H2       1.07602    0.72878    0.92066   1.00
C4       0.91425    0.64433    0.91520   1.00
C4       0.91575    0.68567    0.91480   1.00
C3       0.91980    0.62256    0.95011   1.00
C3       0.92839    0.70744    0.94781   1.00
C4       0.90734    0.62350    0.88000   1.00
C4       0.90414    0.70650    0.88086   1.00
C2       0.91518    0.56148    0.91560   1.00
C2       0.91515    0.76852    0.91561   1.00
C3       0.92059    0.58190    0.95004   1.00
C3       0.92768    0.74810    0.94814   1.00
C3       0.90809    0.58194    0.88104   1.00
C3       0.90401    0.74806    0.88213   1.00
H1       0.92271    0.63612    0.97829   1.00
H1       0.93996    0.69388    0.97367   1.00
C5       0.89931    0.64435    0.84489   1.00
C5       0.89354    0.68565    0.84643   1.00
H1       0.92520    0.56614    0.97704   1.00
H1       0.93718    0.76386    0.97383   1.00
H1       0.90264    0.56447    0.85546   1.00
H1       0.89594    0.76553    0.85725   1.00
C6       0.89846    0.62266    0.80588   1.00
C6       0.87478    0.70734    0.81223   1.00
H2       0.91007    0.64142    0.78218   1.00
H2       0.91880    0.59763    0.80552   1.00
C6       0.85722    0.60776    0.79652   1.00
H2       0.85288    0.68858    0.79750   1.00
H2       0.85698    0.73237    0.82208   1.00
C6       0.90581    0.72224    0.78350   1.00
H2       0.83595    0.63226    0.79570   1.00
C6       0.85675    0.58668    0.75729   1.00
H2       0.84726    0.58740    0.81980   1.00
C6       0.88661    0.74332    0.74929   1.00
H2       0.92608    0.74260    0.79869   1.00
H2       0.92383    0.69774    0.77216   1.00
H2       0.86579    0.60678    0.73350   1.00
H2       0.87680    0.56120    0.75781   1.00
H2       0.82682    0.57602    0.75089   1.00
H2       0.86689    0.72322    0.73321   1.00
H2       0.86951    0.76880    0.75976   1.00
H2       0.90934    0.75398    0.72878   1.00
C4       0.91520    0.91425    0.64433   1.00
C4       0.91480    0.91575    0.68567   1.00
C3       0.95011    0.91980    0.62256   1.00
C3       0.94781    0.92839    0.70744   1.00
C4       0.88000    0.90734    0.62350   1.00
C4       0.88086    0.90414    0.70650   1.00
C2       0.91560    0.91518    0.56148   1.00
C2       0.91561    0.91515    0.76852   1.00
C3       0.95004    0.92059    0.58190   1.00
C3       0.94814    0.92768    0.74810   1.00
C3       0.88104    0.90809    0.58194   1.00
C3       0.88213    0.90401    0.74806   1.00
H1       0.97829    0.92271    0.63612   1.00
H1       0.97367    0.93996    0.69388   1.00
C5       0.84489    0.89931    0.64435   1.00
C5       0.84643    0.89354    0.68565   1.00
H1       0.97704    0.92520    0.56614   1.00
H1       0.97383    0.93718    0.76386   1.00
H1       0.85546    0.90264    0.56447   1.00
H1       0.85725    0.89594    0.76553   1.00
C6       0.80588    0.89846    0.62266   1.00
C6       0.81223    0.87478    0.70734   1.00
H2       0.78218    0.91007    0.64142   1.00
H2       0.80552    0.91880    0.59763   1.00
C6       0.79652    0.85722    0.60776   1.00
H2       0.79750    0.85288    0.68858   1.00
H2       0.82208    0.85698    0.73237   1.00
C6       0.78350    0.90581    0.72224   1.00
H2       0.79570    0.83595    0.63226   1.00
C6       0.75729    0.85675    0.58668   1.00
H2       0.81980    0.84726    0.58740   1.00
C6       0.74929    0.88661    0.74332   1.00
H2       0.79869    0.92608    0.74260   1.00
H2       0.77216    0.92383    0.69774   1.00
H2       0.73350    0.86579    0.60678   1.00
H2       0.75781    0.87680    0.56120   1.00
H2       0.75089    0.82682    0.57602   1.00
H2       0.73321    0.86689    0.72322   1.00
H2       0.75976    0.86951    0.76880   1.00
H2       0.72878    0.90934    0.75398   1.00
C4       0.41520    0.41575    1.18567   1.00
C4       0.41480    0.41425    1.14433   1.00
C3       0.45011    0.41020    1.20744   1.00
C3       0.44781    0.40161    1.12256   1.00
C4       0.38000    0.42266    1.20650   1.00
C4       0.38086    0.42586    1.12350   1.00
C2       0.41560    0.41482    1.26852   1.00
C2       0.41561    0.41485    1.06148   1.00
C3       0.45004    0.40941    1.24810   1.00
C3       0.44814    0.40232    1.08190   1.00
C3       0.38104    0.42191    1.24806   1.00
C3       0.38213    0.42599    1.08194   1.00
H1       0.47829    0.40729    1.19388   1.00
H1       0.47367    0.39004    1.13612   1.00
C5       0.34489    0.43069    1.18565   1.00
C5       0.34643    0.43646    1.14435   1.00
H1       0.47704    0.40480    1.26386   1.00
H1       0.47383    0.39282    1.06614   1.00
H1       0.35546    0.42736    1.26553   1.00
H1       0.35725    0.43406    1.06447   1.00
C6       0.30588    0.43154    1.20734   1.00
C6       0.31223    0.45522    1.12266   1.00
H2       0.28218    0.41993    1.18858   1.00
H2       0.30552    0.41120    1.23237   1.00
C6       0.29652    0.47278    1.22224   1.00
H2       0.29750    0.47712    1.14142   1.00
H2       0.32208    0.47302    1.09763   1.00
C6       0.28350    0.42419    1.10776   1.00
H2       0.29570    0.49405    1.19774   1.00
C6       0.25729    0.47325    1.24332   1.00
H2       0.31980    0.48274    1.24260   1.00
C6       0.24929    0.44339    1.08668   1.00
H2       0.29869    0.40392    1.08740   1.00
H2       0.27216    0.40617    1.13226   1.00
H2       0.23350    0.46421    1.22322   1.00
H2       0.25781    0.45320    1.26880   1.00
H2       0.25089    0.50318    1.25398   1.00
H2       0.23321    0.46311    1.10678   1.00
H2       0.25976    0.46049    1.06120   1.00
H2       0.22878    0.42066    1.07602   1.00
C4       0.41575    0.68567    0.91520   1.00
C4       0.41425    0.64433    0.91480   1.00
C3       0.41020    0.70744    0.95011   1.00
C3       0.40161    0.62256    0.94781   1.00
C4       0.42266    0.70650    0.88000   1.00
C4       0.42586    0.62350    0.88086   1.00
C2       0.41482    0.76852    0.91560   1.00
C2       0.41485    0.56148    0.91561   1.00
C3       0.40941    0.74810    0.95004   1.00
C3       0.40232    0.58190    0.94814   1.00
C3       0.42191    0.74806    0.88104   1.00
C3       0.42599    0.58194    0.88213   1.00
H1       0.40729    0.69388    0.97829   1.00
H1       0.39004    0.63612    0.97367   1.00
C5       0.43069    0.68565    0.84489   1.00
C5       0.43646    0.64435    0.84643   1.00
H1       0.40480    0.76386    0.97704   1.00
H1       0.39282    0.56614    0.97383   1.00
H1       0.42736    0.76553    0.85546   1.00
H1       0.43406    0.56447    0.85725   1.00
C6       0.43154    0.70734    0.80588   1.00
C6       0.45522    0.62266    0.81223   1.00
H2       0.41993    0.68858    0.78218   1.00
H2       0.41120    0.73237    0.80552   1.00
C6       0.47278    0.72224    0.79652   1.00
H2       0.47712    0.64142    0.79750   1.00
H2       0.47302    0.59763    0.82208   1.00
C6       0.42419    0.60776    0.78350   1.00
H2       0.49405    0.69774    0.79570   1.00
C6       0.47325    0.74332    0.75729   1.00
H2       0.48274    0.74260    0.81980   1.00
C6       0.44339    0.58668    0.74929   1.00
H2       0.40392    0.58740    0.79869   1.00
H2       0.40617    0.63226    0.77216   1.00
H2       0.46421    0.72322    0.73350   1.00
H2       0.45320    0.76880    0.75781   1.00
H2       0.50318    0.75398    0.75089   1.00
H2       0.46311    0.60678    0.73321   1.00
H2       0.46049    0.56120    0.75976   1.00
H2       0.42066    0.57602    0.72878   1.00
C4       0.14433    0.41520    0.91425   1.00
C4       0.18567    0.41480    0.91575   1.00
C3       0.12256    0.45011    0.91980   1.00
C3       0.20744    0.44781    0.92839   1.00
C4       0.12350    0.38000    0.90734   1.00
C4       0.20650    0.38086    0.90414   1.00
C2       0.06148    0.41560    0.91518   1.00
C2       0.26852    0.41561    0.91515   1.00
C3       0.08190    0.45004    0.92059   1.00
C3       0.24810    0.44814    0.92768   1.00
C3       0.08194    0.38104    0.90809   1.00
C3       0.24806    0.38213    0.90401   1.00
H1       0.13612    0.47829    0.92271   1.00
H1       0.19388    0.47367    0.93996   1.00
C5       0.14435    0.34489    0.89931   1.00
C5       0.18565    0.34643    0.89354   1.00
H1       0.06614    0.47704    0.92520   1.00
H1       0.26386    0.47383    0.93718   1.00
H1       0.06447    0.35546    0.90264   1.00
H1       0.26553    0.35725    0.89594   1.00
C6       0.12266    0.30588    0.89846   1.00
C6       0.20734    0.31223    0.87478   1.00
H2       0.14142    0.28218    0.91007   1.00
H2       0.09763    0.30552    0.91880   1.00
C6       0.10776    0.29652    0.85722   1.00
H2       0.18858    0.29750    0.85288   1.00
H2       0.23237    0.32208    0.85698   1.00
C6       0.22224    0.28350    0.90581   1.00
H2       0.13226    0.29570    0.83595   1.00
C6       0.08668    0.25729    0.85675   1.00
H2       0.08740    0.31980    0.84726   1.00
C6       0.24332    0.24929    0.88661   1.00
H2       0.24260    0.29869    0.92608   1.00
H2       0.19774    0.27216    0.92383   1.00
H2       0.10678    0.23350    0.86579   1.00
H2       0.06120    0.25781    0.87680   1.00
H2       0.07602    0.25089    0.82682   1.00
H2       0.22322    0.23321    0.86689   1.00
H2       0.26880    0.25976    0.86951   1.00
H2       0.25398    0.22878    0.90934   1.00
C4       0.68567    0.41520    0.91575   1.00
C4       0.64433    0.41480    0.91425   1.00
C3       0.70744    0.45011    0.91020   1.00
C3       0.62256    0.44781    0.90161   1.00
C4       0.70650    0.38000    0.92266   1.00
C4       0.62350    0.38086    0.92586   1.00
C2       0.76852    0.41560    0.91482   1.00
C2       0.56148    0.41561    0.91485   1.00
C3       0.74810    0.45004    0.90941   1.00
C3       0.58190    0.44814    0.90232   1.00
C3       0.74806    0.38104    0.92191   1.00
C3       0.58194    0.38213    0.92599   1.00
H1       0.69388    0.47829    0.90729   1.00
H1       0.63612    0.47367    0.89004   1.00
C5       0.68565    0.34489    0.93069   1.00
C5       0.64435    0.34643    0.93646   1.00
H1       0.76386    0.47704    0.90480   1.00
H1       0.56614    0.47383    0.89282   1.00
H1       0.76553    0.35546    0.92736   1.00
H1       0.56447    0.35725    0.93406   1.00
C6       0.70734    0.30588    0.93154   1.00
C6       0.62266    0.31223    0.95522   1.00
H2       0.68858    0.28218    0.91993   1.00
H2       0.73237    0.30552    0.91120   1.00
C6       0.72224    0.29652    0.97278   1.00
H2       0.64142    0.29750    0.97712   1.00
H2       0.59763    0.32208    0.97302   1.00
C6       0.60776    0.28350    0.92419   1.00
H2       0.69774    0.29570    0.99405   1.00
C6       0.74332    0.25729    0.97325   1.00
H2       0.74260    0.31980    0.98274   1.00
C6       0.58668    0.24929    0.94339   1.00
H2       0.58740    0.29869    0.90392   1.00
H2       0.63226    0.27216    0.90617   1.00
H2       0.72322    0.23350    0.96421   1.00
H2       0.76880    0.25781    0.95320   1.00
H2       0.75398    0.25089    1.00318   1.00
H2       0.60678    0.23321    0.96311   1.00
H2       0.56120    0.25976    0.96049   1.00
H2       0.57602    0.22878    0.92066   1.00
C4       0.41425    0.14433    0.91520   1.00
C4       0.41575    0.18567    0.91480   1.00
C3       0.41980    0.12256    0.95011   1.00
C3       0.42839    0.20744    0.94781   1.00
C4       0.40734    0.12350    0.88000   1.00
C4       0.40414    0.20650    0.88086   1.00
C2       0.41518    0.06148    0.91560   1.00
C2       0.41515    0.26852    0.91561   1.00
C3       0.42059    0.08190    0.95004   1.00
C3       0.42768    0.24810    0.94814   1.00
C3       0.40809    0.08194    0.88104   1.00
C3       0.40401    0.24806    0.88213   1.00
H1       0.42271    0.13612    0.97829   1.00
H1       0.43996    0.19388    0.97367   1.00
C5       0.39931    0.14435    0.84489   1.00
C5       0.39354    0.18565    0.84643   1.00
H1       0.42520    0.06614    0.97704   1.00
H1       0.43718    0.26386    0.97383   1.00
H1       0.40264    0.06447    0.85546   1.00
H1       0.39594    0.26553    0.85725   1.00
C6       0.39846    0.12266    0.80588   1.00
C6       0.37478    0.20734    0.81223   1.00
H2       0.41007    0.14142    0.78218   1.00
H2       0.41880    0.09763    0.80552   1.00
C6       0.35722    0.10776    0.79652   1.00
H2       0.35288    0.18858    0.79750   1.00
H2       0.35698    0.23237    0.82208   1.00
C6       0.40581    0.22224    0.78350   1.00
H2       0.33595    0.13226    0.79570   1.00
C6       0.35675    0.08668    0.75729   1.00
H2       0.34726    0.08740    0.81980   1.00
C6       0.38661    0.24332    0.74929   1.00
H2       0.42608    0.24260    0.79869   1.00
H2       0.42383    0.19774    0.77216   1.00
H2       0.36579    0.10678    0.73350   1.00
H2       0.37680    0.06120    0.75781   1.00
H2       0.32682    0.07602    0.75089   1.00
H2       0.36689    0.22322    0.73321   1.00
H2       0.36951    0.26880    0.75976   1.00
H2       0.40934    0.25398    0.72878   1.00
C4       0.41520    0.41425    0.64433   1.00
C4       0.41480    0.41575    0.68567   1.00
C3       0.45011    0.41980    0.62256   1.00
C3       0.44781    0.42839    0.70744   1.00
C4       0.38000    0.40734    0.62350   1.00
C4       0.38086    0.40414    0.70650   1.00
C2       0.41560    0.41518    0.56148   1.00
C2       0.41561    0.41515    0.76852   1.00
C3       0.45004    0.42059    0.58190   1.00
C3       0.44814    0.42768    0.74810   1.00
C3       0.38104    0.40809    0.58194   1.00
C3       0.38213    0.40401    0.74806   1.00
H1       0.47829    0.42271    0.63612   1.00
H1       0.47367    0.43996    0.69388   1.00
C5       0.34489    0.39931    0.64435   1.00
C5       0.34643    0.39354    0.68565   1.00
H1       0.47704    0.42520    0.56614   1.00
H1       0.47383    0.43718    0.76386   1.00
H1       0.35546    0.40264    0.56447   1.00
H1       0.35725    0.39594    0.76553   1.00
C6       0.30588    0.39846    0.62266   1.00
C6       0.31223    0.37478    0.70734   1.00
H2       0.28218    0.41007    0.64142   1.00
H2       0.30552    0.41880    0.59763   1.00
C6       0.29652    0.35722    0.60776   1.00
H2       0.29750    0.35288    0.68858   1.00
H2       0.32208    0.35698    0.73237   1.00
C6       0.28350    0.40581    0.72224   1.00
H2       0.29570    0.33595    0.63226   1.00
C6       0.25729    0.35675    0.58668   1.00
H2       0.31980    0.34726    0.58740   1.00
C6       0.24929    0.38661    0.74332   1.00
H2       0.29869    0.42608    0.74260   1.00
H2       0.27216    0.42383    0.69774   1.00
H2       0.23350    0.36579    0.60678   1.00
H2       0.25781    0.37680    0.56120   1.00
H2       0.25089    0.32682    0.57602   1.00
H2       0.23321    0.36689    0.72322   1.00
H2       0.25976    0.36951    0.76880   1.00
H2       0.22878    0.40934    0.75398   1.00
C4       0.41520    0.91575    0.68567   1.00
C4       0.41480    0.91425    0.64433   1.00
C3       0.45011    0.91020    0.70744   1.00
C3       0.44781    0.90161    0.62256   1.00
C4       0.38000    0.92266    0.70650   1.00
C4       0.38086    0.92586    0.62350   1.00
C2       0.41560    0.91482    0.76852   1.00
C2       0.41561    0.91485    0.56148   1.00
C3       0.45004    0.90941    0.74810   1.00
C3       0.44814    0.90232    0.58190   1.00
C3       0.38104    0.92191    0.74806   1.00
C3       0.38213    0.92599    0.58194   1.00
H1       0.47829    0.90729    0.69388   1.00
H1       0.47367    0.89004    0.63612   1.00
C5       0.34489    0.93069    0.68565   1.00
C5       0.34643    0.93646    0.64435   1.00
H1       0.47704    0.90480    0.76386   1.00
H1       0.47383    0.89282    0.56614   1.00
H1       0.35546    0.92736    0.76553   1.00
H1       0.35725    0.93406    0.56447   1.00
C6       0.30588    0.93154    0.70734   1.00
C6       0.31223    0.95522    0.62266   1.00
H2       0.28218    0.91993    0.68858   1.00
H2       0.30552    0.91120    0.73237   1.00
C6       0.29652    0.97278    0.72224   1.00
H2       0.29750    0.97712    0.64142   1.00
H2       0.32208    0.97302    0.59763   1.00
C6       0.28350    0.92419    0.60776   1.00
H2       0.29570    0.99405    0.69774   1.00
C6       0.25729    0.97325    0.74332   1.00
H2       0.31980    0.98274    0.74260   1.00
C6       0.24929    0.94339    0.58668   1.00
H2       0.29869    0.90392    0.58740   1.00
H2       0.27216    0.90617    0.63226   1.00
H2       0.23350    0.96421    0.72322   1.00
H2       0.25781    0.95320    0.76880   1.00
H2       0.25089    1.00318    0.75398   1.00
H2       0.23321    0.96311    0.60678   1.00
H2       0.25976    0.96049    0.56120   1.00
H2       0.22878    0.92066    0.57602   1.00
C4       0.41575    1.18567    0.41520   1.00
C4       0.41425    1.14433    0.41480   1.00
C3       0.41020    1.20744    0.45011   1.00
C3       0.40161    1.12256    0.44781   1.00
C4       0.42266    1.20650    0.38000   1.00
C4       0.42586    1.12350    0.38086   1.00
C2       0.41482    1.26852    0.41560   1.00
C2       0.41485    1.06148    0.41561   1.00
C3       0.40941    1.24810    0.45004   1.00
C3       0.40232    1.08190    0.44814   1.00
C3       0.42191    1.24806    0.38104   1.00
C3       0.42599    1.08194    0.38213   1.00
H1       0.40729    1.19388    0.47829   1.00
H1       0.39004    1.13612    0.47367   1.00
C5       0.43069    1.18565    0.34489   1.00
C5       0.43646    1.14435    0.34643   1.00
H1       0.40480    1.26386    0.47704   1.00
H1       0.39282    1.06614    0.47383   1.00
H1       0.42736    1.26553    0.35546   1.00
H1       0.43406    1.06447    0.35725   1.00
C6       0.43154    1.20734    0.30588   1.00
C6       0.45522    1.12266    0.31223   1.00
H2       0.41993    1.18858    0.28218   1.00
H2       0.41120    1.23237    0.30552   1.00
C6       0.47278    1.22224    0.29652   1.00
H2       0.47712    1.14142    0.29750   1.00
H2       0.47302    1.09763    0.32208   1.00
C6       0.42419    1.10776    0.28350   1.00
H2       0.49405    1.19774    0.29570   1.00
C6       0.47325    1.24332    0.25729   1.00
H2       0.48274    1.24260    0.31980   1.00
C6       0.44339    1.08668    0.24929   1.00
H2       0.40392    1.08740    0.29869   1.00
H2       0.40617    1.13226    0.27216   1.00
H2       0.46421    1.22322    0.23350   1.00
H2       0.45320    1.26880    0.25781   1.00
H2       0.50318    1.25398    0.25089   1.00
H2       0.46311    1.10678    0.23321   1.00
H2       0.46049    1.06120    0.25976   1.00
H2       0.42066    1.07602    0.22878   1.00
C4       0.14433    0.91520    0.41425   1.00
C4       0.18567    0.91480    0.41575   1.00
C3       0.12256    0.95011    0.41980   1.00
C3       0.20744    0.94781    0.42839   1.00
C4       0.12350    0.88000    0.40734   1.00
C4       0.20650    0.88086    0.40414   1.00
C2       0.06148    0.91560    0.41518   1.00
C2       0.26852    0.91561    0.41515   1.00
C3       0.08190    0.95004    0.42059   1.00
C3       0.24810    0.94814    0.42768   1.00
C3       0.08194    0.88104    0.40809   1.00
C3       0.24806    0.88213    0.40401   1.00
H1       0.13612    0.97829    0.42271   1.00
H1       0.19388    0.97367    0.43996   1.00
C5       0.14435    0.84489    0.39931   1.00
C5       0.18565    0.84643    0.39354   1.00
H1       0.06614    0.97704    0.42520   1.00
H1       0.26386    0.97383    0.43718   1.00
H1       0.06447    0.85546    0.40264   1.00
H1       0.26553    0.85725    0.39594   1.00
C6       0.12266    0.80588    0.39846   1.00
C6       0.20734    0.81223    0.37478   1.00
H2       0.14142    0.78218    0.41007   1.00
H2       0.09763    0.80552    0.41880   1.00
C6       0.10776    0.79652    0.35722   1.00
H2       0.18858    0.79750    0.35288   1.00
H2       0.23237    0.82208    0.35698   1.00
C6       0.22224    0.78350    0.40581   1.00
H2       0.13226    0.79570    0.33595   1.00
C6       0.08668    0.75729    0.35675   1.00
H2       0.08740    0.81980    0.34726   1.00
C6       0.24332    0.74929    0.38661   1.00
H2       0.24260    0.79869    0.42608   1.00
H2       0.19774    0.77216    0.42383   1.00
H2       0.10678    0.73350    0.36579   1.00
H2       0.06120    0.75781    0.37680   1.00
H2       0.07602    0.75089    0.32682   1.00
H2       0.22322    0.73321    0.36689   1.00
H2       0.26880    0.75976    0.36951   1.00
H2       0.25398    0.72878    0.40934   1.00
C4       0.68567    0.91520    0.41575   1.00
C4       0.64433    0.91480    0.41425   1.00
C3       0.70744    0.95011    0.41020   1.00
C3       0.62256    0.94781    0.40161   1.00
C4       0.70650    0.88000    0.42266   1.00
C4       0.62350    0.88086    0.42586   1.00
C2       0.76852    0.91560    0.41482   1.00
C2       0.56148    0.91561    0.41485   1.00
C3       0.74810    0.95004    0.40941   1.00
C3       0.58190    0.94814    0.40232   1.00
C3       0.74806    0.88104    0.42191   1.00
C3       0.58194    0.88213    0.42599   1.00
H1       0.69388    0.97829    0.40729   1.00
H1       0.63612    0.97367    0.39004   1.00
C5       0.68565    0.84489    0.43069   1.00
C5       0.64435    0.84643    0.43646   1.00
H1       0.76386    0.97704    0.40480   1.00
H1       0.56614    0.97383    0.39282   1.00
H1       0.76553    0.85546    0.42736   1.00
H1       0.56447    0.85725    0.43406   1.00
C6       0.70734    0.80588    0.43154   1.00
C6       0.62266    0.81223    0.45522   1.00
H2       0.68858    0.78218    0.41993   1.00
H2       0.73237    0.80552    0.41120   1.00
C6       0.72224    0.79652    0.47278   1.00
H2       0.64142    0.79750    0.47712   1.00
H2       0.59763    0.82208    0.47302   1.00
C6       0.60776    0.78350    0.42419   1.00
H2       0.69774    0.79570    0.49405   1.00
C6       0.74332    0.75729    0.47325   1.00
H2       0.74260    0.81980    0.48274   1.00
C6       0.58668    0.74929    0.44339   1.00
H2       0.58740    0.79869    0.40392   1.00
H2       0.63226    0.77216    0.40617   1.00
H2       0.72322    0.73350    0.46421   1.00
H2       0.76880    0.75781    0.45320   1.00
H2       0.75398    0.75089    0.50318   1.00
H2       0.60678    0.73321    0.46311   1.00
H2       0.56120    0.75976    0.46049   1.00
H2       0.57602    0.72878    0.42066   1.00
C4       0.41425    0.64433    0.41520   1.00
C4       0.41575    0.68567    0.41480   1.00
C3       0.41980    0.62256    0.45011   1.00
C3       0.42839    0.70744    0.44781   1.00
C4       0.40734    0.62350    0.38000   1.00
C4       0.40414    0.70650    0.38086   1.00
C2       0.41518    0.56148    0.41560   1.00
C2       0.41515    0.76852    0.41561   1.00
C3       0.42059    0.58190    0.45004   1.00
C3       0.42768    0.74810    0.44814   1.00
C3       0.40809    0.58194    0.38104   1.00
C3       0.40401    0.74806    0.38213   1.00
H1       0.42271    0.63612    0.47829   1.00
H1       0.43996    0.69388    0.47367   1.00
C5       0.39931    0.64435    0.34489   1.00
C5       0.39354    0.68565    0.34643   1.00
H1       0.42520    0.56614    0.47704   1.00
H1       0.43718    0.76386    0.47383   1.00
H1       0.40264    0.56447    0.35546   1.00
H1       0.39594    0.76553    0.35725   1.00
C6       0.39846    0.62266    0.30588   1.00
C6       0.37478    0.70734    0.31223   1.00
H2       0.41007    0.64142    0.28218   1.00
H2       0.41880    0.59763    0.30552   1.00
C6       0.35722    0.60776    0.29652   1.00
H2       0.35288    0.68858    0.29750   1.00
H2       0.35698    0.73237    0.32208   1.00
C6       0.40581    0.72224    0.28350   1.00
H2       0.33595    0.63226    0.29570   1.00
C6       0.35675    0.58668    0.25729   1.00
H2       0.34726    0.58740    0.31980   1.00
C6       0.38661    0.74332    0.24929   1.00
H2       0.42608    0.74260    0.29869   1.00
H2       0.42383    0.69774    0.27216   1.00
H2       0.36579    0.60678    0.23350   1.00
H2       0.37680    0.56120    0.25781   1.00
H2       0.32682    0.57602    0.25089   1.00
H2       0.36689    0.72322    0.23321   1.00
H2       0.36951    0.76880    0.25976   1.00
H2       0.40934    0.75398    0.22878   1.00
C4       0.41520    0.91425    0.14433   1.00
C4       0.41480    0.91575    0.18567   1.00
C3       0.45011    0.91980    0.12256   1.00
C3       0.44781    0.92839    0.20744   1.00
C4       0.38000    0.90734    0.12350   1.00
C4       0.38086    0.90414    0.20650   1.00
C2       0.41560    0.91518    0.06148   1.00
C2       0.41561    0.91515    0.26852   1.00
C3       0.45004    0.92059    0.08190   1.00
C3       0.44814    0.92768    0.24810   1.00
C3       0.38104    0.90809    0.08194   1.00
C3       0.38213    0.90401    0.24806   1.00
H1       0.47829    0.92271    0.13612   1.00
H1       0.47367    0.93996    0.19388   1.00
C5       0.34489    0.89931    0.14435   1.00
C5       0.34643    0.89354    0.18565   1.00
H1       0.47704    0.92520    0.06614   1.00
H1       0.47383    0.93718    0.26386   1.00
H1       0.35546    0.90264    0.06447   1.00
H1       0.35725    0.89594    0.26553   1.00
C6       0.30588    0.89846    0.12266   1.00
C6       0.31223    0.87478    0.20734   1.00
H2       0.28218    0.91007    0.14142   1.00
H2       0.30552    0.91880    0.09763   1.00
C6       0.29652    0.85722    0.10776   1.00
H2       0.29750    0.85288    0.18858   1.00
H2       0.32208    0.85698    0.23237   1.00
C6       0.28350    0.90581    0.22224   1.00
H2       0.29570    0.83595    0.13226   1.00
C6       0.25729    0.85675    0.08668   1.00
H2       0.31980    0.84726    0.08740   1.00
C6       0.24929    0.88661    0.24332   1.00
H2       0.29869    0.92608    0.24260   1.00
H2       0.27216    0.92383    0.19774   1.00
H2       0.23350    0.86579    0.10678   1.00
H2       0.25781    0.87680    0.06120   1.00
H2       0.25089    0.82682    0.07602   1.00
H2       0.23321    0.86689    0.22322   1.00
H2       0.25976    0.86951    0.26880   1.00
H2       0.22878    0.90934    0.25398   1.00
C4       0.91520    0.41575    0.68567   1.00
C4       0.91480    0.41425    0.64433   1.00
C3       0.95011    0.41020    0.70744   1.00
C3       0.94781    0.40161    0.62256   1.00
C4       0.88000    0.42266    0.70650   1.00
C4       0.88086    0.42586    0.62350   1.00
C2       0.91560    0.41482    0.76852   1.00
C2       0.91561    0.41485    0.56148   1.00
C3       0.95004    0.40941    0.74810   1.00
C3       0.94814    0.40232    0.58190   1.00
C3       0.88104    0.42191    0.74806   1.00
C3       0.88213    0.42599    0.58194   1.00
H1       0.97829    0.40729    0.69388   1.00
H1       0.97367    0.39004    0.63612   1.00
C5       0.84489    0.43069    0.68565   1.00
C5       0.84643    0.43646    0.64435   1.00
H1       0.97704    0.40480    0.76386   1.00
H1       0.97383    0.39282    0.56614   1.00
H1       0.85546    0.42736    0.76553   1.00
H1       0.85725    0.43406    0.56447   1.00
C6       0.80588    0.43154    0.70734   1.00
C6       0.81223    0.45522    0.62266   1.00
H2       0.78218    0.41993    0.68858   1.00
H2       0.80552    0.41120    0.73237   1.00
C6       0.79652    0.47278    0.72224   1.00
H2       0.79750    0.47712    0.64142   1.00
H2       0.82208    0.47302    0.59763   1.00
C6       0.78350    0.42419    0.60776   1.00
H2       0.79570    0.49405    0.69774   1.00
C6       0.75729    0.47325    0.74332   1.00
H2       0.81980    0.48274    0.74260   1.00
C6       0.74929    0.44339    0.58668   1.00
H2       0.79869    0.40392    0.58740   1.00
H2       0.77216    0.40617    0.63226   1.00
H2       0.73350    0.46421    0.72322   1.00
H2       0.75781    0.45320    0.76880   1.00
H2       0.75089    0.50318    0.75398   1.00
H2       0.73321    0.46311    0.60678   1.00
H2       0.75976    0.46049    0.56120   1.00
H2       0.72878    0.42066    0.57602   1.00
C4       0.91575    0.68567    0.41520   1.00
C4       0.91425    0.64433    0.41480   1.00
C3       0.91020    0.70744    0.45011   1.00
C3       0.90161    0.62256    0.44781   1.00
C4       0.92266    0.70650    0.38000   1.00
C4       0.92586    0.62350    0.38086   1.00
C2       0.91482    0.76852    0.41560   1.00
C2       0.91485    0.56148    0.41561   1.00
C3       0.90941    0.74810    0.45004   1.00
C3       0.90232    0.58190    0.44814   1.00
C3       0.92191    0.74806    0.38104   1.00
C3       0.92599    0.58194    0.38213   1.00
H1       0.90729    0.69388    0.47829   1.00
H1       0.89004    0.63612    0.47367   1.00
C5       0.93069    0.68565    0.34489   1.00
C5       0.93646    0.64435    0.34643   1.00
H1       0.90480    0.76386    0.47704   1.00
H1       0.89282    0.56614    0.47383   1.00
H1       0.92736    0.76553    0.35546   1.00
H1       0.93406    0.56447    0.35725   1.00
C6       0.93154    0.70734    0.30588   1.00
C6       0.95522    0.62266    0.31223   1.00
H2       0.91993    0.68858    0.28218   1.00
H2       0.91120    0.73237    0.30552   1.00
C6       0.97278    0.72224    0.29652   1.00
H2       0.97712    0.64142    0.29750   1.00
H2       0.97302    0.59763    0.32208   1.00
C6       0.92419    0.60776    0.28350   1.00
H2       0.99405    0.69774    0.29570   1.00
C6       0.97325    0.74332    0.25729   1.00
H2       0.98274    0.74260    0.31980   1.00
C6       0.94339    0.58668    0.24929   1.00
H2       0.90392    0.58740    0.29869   1.00
H2       0.90617    0.63226    0.27216   1.00
H2       0.96421    0.72322    0.23350   1.00
H2       0.95320    0.76880    0.25781   1.00
H2       1.00318    0.75398    0.25089   1.00
H2       0.96311    0.60678    0.23321   1.00
H2       0.96049    0.56120    0.25976   1.00
H2       0.92066    0.57602    0.22878   1.00
C4       0.64433    0.41520    0.41425   1.00
C4       0.68567    0.41480    0.41575   1.00
C3       0.62256    0.45011    0.41980   1.00
C3       0.70744    0.44781    0.42839   1.00
C4       0.62350    0.38000    0.40734   1.00
C4       0.70650    0.38086    0.40414   1.00
C2       0.56148    0.41560    0.41518   1.00
C2       0.76852    0.41561    0.41515   1.00
C3       0.58190    0.45004    0.42059   1.00
C3       0.74810    0.44814    0.42768   1.00
C3       0.58194    0.38104    0.40809   1.00
C3       0.74806    0.38213    0.40401   1.00
H1       0.63612    0.47829    0.42271   1.00
H1       0.69388    0.47367    0.43996   1.00
C5       0.64435    0.34489    0.39931   1.00
C5       0.68565    0.34643    0.39354   1.00
H1       0.56614    0.47704    0.42520   1.00
H1       0.76386    0.47383    0.43718   1.00
H1       0.56447    0.35546    0.40264   1.00
H1       0.76553    0.35725    0.39594   1.00
C6       0.62266    0.30588    0.39846   1.00
C6       0.70734    0.31223    0.37478   1.00
H2       0.64142    0.28218    0.41007   1.00
H2       0.59763    0.30552    0.41880   1.00
C6       0.60776    0.29652    0.35722   1.00
H2       0.68858    0.29750    0.35288   1.00
H2       0.73237    0.32208    0.35698   1.00
C6       0.72224    0.28350    0.40581   1.00
H2       0.63226    0.29570    0.33595   1.00
C6       0.58668    0.25729    0.35675   1.00
H2       0.58740    0.31980    0.34726   1.00
C6       0.74332    0.24929    0.38661   1.00
H2       0.74260    0.29869    0.42608   1.00
H2       0.69774    0.27216    0.42383   1.00
H2       0.60678    0.23350    0.36579   1.00
H2       0.56120    0.25781    0.37680   1.00
H2       0.57602    0.25089    0.32682   1.00
H2       0.72322    0.23321    0.36689   1.00
H2       0.76880    0.25976    0.36951   1.00
H2       0.75398    0.22878    0.40934   1.00
C4       1.18567    0.41520    0.41575   1.00
C4       1.14433    0.41480    0.41425   1.00
C3       1.20744    0.45011    0.41020   1.00
C3       1.12256    0.44781    0.40161   1.00
C4       1.20650    0.38000    0.42266   1.00
C4       1.12350    0.38086    0.42586   1.00
C2       1.26852    0.41560    0.41482   1.00
C2       1.06148    0.41561    0.41485   1.00
C3       1.24810    0.45004    0.40941   1.00
C3       1.08190    0.44814    0.40232   1.00
C3       1.24806    0.38104    0.42191   1.00
C3       1.08194    0.38213    0.42599   1.00
H1       1.19388    0.47829    0.40729   1.00
H1       1.13612    0.47367    0.39004   1.00
C5       1.18565    0.34489    0.43069   1.00
C5       1.14435    0.34643    0.43646   1.00
H1       1.26386    0.47704    0.40480   1.00
H1       1.06614    0.47383    0.39282   1.00
H1       1.26553    0.35546    0.42736   1.00
H1       1.06447    0.35725    0.43406   1.00
C6       1.20734    0.30588    0.43154   1.00
C6       1.12266    0.31223    0.45522   1.00
H2       1.18858    0.28218    0.41993   1.00
H2       1.23237    0.30552    0.41120   1.00
C6       1.22224    0.29652    0.47278   1.00
H2       1.14142    0.29750    0.47712   1.00
H2       1.09763    0.32208    0.47302   1.00
C6       1.10776    0.28350    0.42419   1.00
H2       1.19774    0.29570    0.49405   1.00
C6       1.24332    0.25729    0.47325   1.00
H2       1.24260    0.31980    0.48274   1.00
C6       1.08668    0.24929    0.44339   1.00
H2       1.08740    0.29869    0.40392   1.00
H2       1.13226    0.27216    0.40617   1.00
H2       1.22322    0.23350    0.46421   1.00
H2       1.26880    0.25781    0.45320   1.00
H2       1.25398    0.25089    0.50318   1.00
H2       1.10678    0.23321    0.46311   1.00
H2       1.06120    0.25976    0.46049   1.00
H2       1.07602    0.22878    0.42066   1.00
C4       0.91425    0.14433    0.41520   1.00
C4       0.91575    0.18567    0.41480   1.00
C3       0.91980    0.12256    0.45011   1.00
C3       0.92839    0.20744    0.44781   1.00
C4       0.90734    0.12350    0.38000   1.00
C4       0.90414    0.20650    0.38086   1.00
C2       0.91518    0.06148    0.41560   1.00
C2       0.91515    0.26852    0.41561   1.00
C3       0.92059    0.08190    0.45004   1.00
C3       0.92768    0.24810    0.44814   1.00
C3       0.90809    0.08194    0.38104   1.00
C3       0.90401    0.24806    0.38213   1.00
H1       0.92271    0.13612    0.47829   1.00
H1       0.93996    0.19388    0.47367   1.00
C5       0.89931    0.14435    0.34489   1.00
C5       0.89354    0.18565    0.34643   1.00
H1       0.92520    0.06614    0.47704   1.00
H1       0.93718    0.26386    0.47383   1.00
H1       0.90264    0.06447    0.35546   1.00
H1       0.89594    0.26553    0.35725   1.00
C6       0.89846    0.12266    0.30588   1.00
C6       0.87478    0.20734    0.31223   1.00
H2       0.91007    0.14142    0.28218   1.00
H2       0.91880    0.09763    0.30552   1.00
C6       0.85722    0.10776    0.29652   1.00
H2       0.85288    0.18858    0.29750   1.00
H2       0.85698    0.23237    0.32208   1.00
C6       0.90581    0.22224    0.28350   1.00
H2       0.83595    0.13226    0.29570   1.00
C6       0.85675    0.08668    0.25729   1.00
H2       0.84726    0.08740    0.31980   1.00
C6       0.88661    0.24332    0.24929   1.00
H2       0.92608    0.24260    0.29869   1.00
H2       0.92383    0.19774    0.27216   1.00
H2       0.86579    0.10678    0.23350   1.00
H2       0.87680    0.06120    0.25781   1.00
H2       0.82682    0.07602    0.25089   1.00
H2       0.86689    0.22322    0.23321   1.00
H2       0.86951    0.26880    0.25976   1.00
H2       0.90934    0.25398    0.22878   1.00
C4       0.91520    0.41425    0.14433   1.00
C4       0.91480    0.41575    0.18567   1.00
C3       0.95011    0.41980    0.12256   1.00
C3       0.94781    0.42839    0.20744   1.00
C4       0.88000    0.40734    0.12350   1.00
C4       0.88086    0.40414    0.20650   1.00
C2       0.91560    0.41518    0.06148   1.00
C2       0.91561    0.41515    0.26852   1.00
C3       0.95004    0.42059    0.08190   1.00
C3       0.94814    0.42768    0.24810   1.00
C3       0.88104    0.40809    0.08194   1.00
C3       0.88213    0.40401    0.24806   1.00
H1       0.97829    0.42271    0.13612   1.00
H1       0.97367    0.43996    0.19388   1.00
C5       0.84489    0.39931    0.14435   1.00
C5       0.84643    0.39354    0.18565   1.00
H1       0.97704    0.42520    0.06614   1.00
H1       0.97383    0.43718    0.26386   1.00
H1       0.85546    0.40264    0.06447   1.00
H1       0.85725    0.39594    0.26553   1.00
C6       0.80588    0.39846    0.12266   1.00
C6       0.81223    0.37478    0.20734   1.00
H2       0.78218    0.41007    0.14142   1.00
H2       0.80552    0.41880    0.09763   1.00
C6       0.79652    0.35722    0.10776   1.00
H2       0.79750    0.35288    0.18858   1.00
H2       0.82208    0.35698    0.23237   1.00
C6       0.78350    0.40581    0.22224   1.00
H2       0.79570    0.33595    0.13226   1.00
C6       0.75729    0.35675    0.08668   1.00
H2       0.81980    0.34726    0.08740   1.00
C6       0.74929    0.38661    0.24332   1.00
H2       0.79869    0.42608    0.24260   1.00
H2       0.77216    0.42383    0.19774   1.00
H2       0.73350    0.36579    0.10678   1.00
H2       0.75781    0.37680    0.06120   1.00
H2       0.75089    0.32682    0.07602   1.00
H2       0.73321    0.36689    0.22322   1.00
H2       0.75976    0.36951    0.26880   1.00
H2       0.72878    0.40934    0.25398   1.00
