data_IRMOF10_SG202_interpen_Ligand8cp_label_b.

_audit_creation_method             'generated by an auxiliary program of Tobunporous'

_symmetry_space_group_name_H-M     'P 1'
_symmetry_Int_Tables_number        1
_symmetry_cell_setting             triclinic

_cell_length_a                    34.2800
_cell_length_b                    34.2800
_cell_length_c                    34.2800
_cell_angle_alpha                 90.0000
_cell_angle_beta                  90.0000
_cell_angle_gamma                 90.0000

loop_
_atom_site_label
_atom_site_fract_x
_atom_site_fract_y
_atom_site_fract_z
_atom_site_occupancy
O1       0.75000    0.75000    0.75000   1.00
Zn1      0.71720    0.78280    0.78280   1.00
Zn1      0.78280    0.71720    0.78280   1.00
Zn1      0.78280    0.78280    0.71720   1.00
Zn1      0.71720    0.71720    0.71720   1.00
O2       0.72650    0.77350    0.83820   1.00
O2       0.72650    0.83820    0.77350   1.00
O2       0.66180    0.77350    0.77350   1.00
O2       0.77350    0.72650    0.83820   1.00
O2       0.83820    0.72650    0.77350   1.00
O2       0.77350    0.66180    0.77350   1.00
O2       0.77350    0.83820    0.72650   1.00
O2       0.83820    0.77350    0.72650   1.00
O2       0.77350    0.77350    0.66180   1.00
O2       0.66180    0.72650    0.72650   1.00
O2       0.72650    0.66180    0.72650   1.00
O2       0.72650    0.72650    0.66180   1.00
C1       0.75000    0.75000    0.85520   1.00
C1       0.75000    0.85520    0.75000   1.00
C1       0.64480    0.75000    0.75000   1.00
C1       0.85520    0.75000    0.75000   1.00
C1       0.75000    0.64480    0.75000   1.00
C1       0.75000    0.75000    0.64480   1.00
O1       0.25000    0.25000    0.75000   1.00
Zn1      0.21720    0.28280    0.78280   1.00
Zn1      0.28280    0.21720    0.78280   1.00
Zn1      0.28280    0.28280    0.71720   1.00
Zn1      0.21720    0.21720    0.71720   1.00
O2       0.22650    0.27350    0.83820   1.00
O2       0.22650    0.33820    0.77350   1.00
O2       0.16180    0.27350    0.77350   1.00
O2       0.27350    0.22650    0.83820   1.00
O2       0.33820    0.22650    0.77350   1.00
O2       0.27350    0.16180    0.77350   1.00
O2       0.27350    0.33820    0.72650   1.00
O2       0.33820    0.27350    0.72650   1.00
O2       0.27350    0.27350    0.66180   1.00
O2       0.16180    0.22650    0.72650   1.00
O2       0.22650    0.16180    0.72650   1.00
O2       0.22650    0.22650    0.66180   1.00
C1       0.25000    0.25000    0.85520   1.00
C1       0.25000    0.35520    0.75000   1.00
C1       0.14480    0.25000    0.75000   1.00
C1       0.35520    0.25000    0.75000   1.00
C1       0.25000    0.14480    0.75000   1.00
C1       0.25000    0.25000    0.64480   1.00
O1       0.25000    0.75000    0.25000   1.00
Zn1      0.21720    0.78280    0.28280   1.00
Zn1      0.28280    0.71720    0.28280   1.00
Zn1      0.28280    0.78280    0.21720   1.00
Zn1      0.21720    0.71720    0.21720   1.00
O2       0.22650    0.77350    0.33820   1.00
O2       0.22650    0.83820    0.27350   1.00
O2       0.16180    0.77350    0.27350   1.00
O2       0.27350    0.72650    0.33820   1.00
O2       0.33820    0.72650    0.27350   1.00
O2       0.27350    0.66180    0.27350   1.00
O2       0.27350    0.83820    0.22650   1.00
O2       0.33820    0.77350    0.22650   1.00
O2       0.27350    0.77350    0.16180   1.00
O2       0.16180    0.72650    0.22650   1.00
O2       0.22650    0.66180    0.22650   1.00
O2       0.22650    0.72650    0.16180   1.00
C1       0.25000    0.75000    0.35520   1.00
C1       0.25000    0.85520    0.25000   1.00
C1       0.14480    0.75000    0.25000   1.00
C1       0.35520    0.75000    0.25000   1.00
C1       0.25000    0.64480    0.25000   1.00
C1       0.25000    0.75000    0.14480   1.00
O1       0.75000    0.25000    0.25000   1.00
Zn1      0.71720    0.28280    0.28280   1.00
Zn1      0.78280    0.21720    0.28280   1.00
Zn1      0.78280    0.28280    0.21720   1.00
Zn1      0.71720    0.21720    0.21720   1.00
O2       0.72650    0.27350    0.33820   1.00
O2       0.72650    0.33820    0.27350   1.00
O2       0.66180    0.27350    0.27350   1.00
O2       0.77350    0.22650    0.33820   1.00
O2       0.83820    0.22650    0.27350   1.00
O2       0.77350    0.16180    0.27350   1.00
O2       0.77350    0.33820    0.22650   1.00
O2       0.83820    0.27350    0.22650   1.00
O2       0.77350    0.27350    0.16180   1.00
O2       0.66180    0.22650    0.22650   1.00
O2       0.72650    0.16180    0.22650   1.00
O2       0.72650    0.22650    0.16180   1.00
C1       0.75000    0.25000    0.35520   1.00
C1       0.75000    0.35520    0.25000   1.00
C1       0.64480    0.25000    0.25000   1.00
C1       0.85520    0.25000    0.25000   1.00
C1       0.75000    0.14480    0.25000   1.00
C1       0.75000    0.25000    0.14480   1.00
O1       0.25000    0.25000    0.25000   1.00
Zn1      0.28280    0.21720    0.21720   1.00
Zn1      0.21720    0.28280    0.21720   1.00
Zn1      0.21720    0.21720    0.28280   1.00
Zn1      0.28280    0.28280    0.28280   1.00
O2       0.27350    0.22650    0.16180   1.00
O2       0.27350    0.16180    0.22650   1.00
O2       0.33820    0.22650    0.22650   1.00
O2       0.22650    0.27350    0.16180   1.00
O2       0.16180    0.27350    0.22650   1.00
O2       0.22650    0.33820    0.22650   1.00
O2       0.22650    0.16180    0.27350   1.00
O2       0.16180    0.22650    0.27350   1.00
O2       0.22650    0.22650    0.33820   1.00
O2       0.33820    0.27350    0.27350   1.00
O2       0.27350    0.33820    0.27350   1.00
O2       0.27350    0.27350    0.33820   1.00
C1       0.25000    0.25000    0.14480   1.00
C1       0.25000    0.14480    0.25000   1.00
C1       0.35520    0.25000    0.25000   1.00
C1       0.14480    0.25000    0.25000   1.00
C1       0.25000    0.35520    0.25000   1.00
C1       0.25000    0.25000    0.35520   1.00
O1       0.75000    0.75000    0.25000   1.00
Zn1      0.78280    0.71720    0.21720   1.00
Zn1      0.71720    0.78280    0.21720   1.00
Zn1      0.71720    0.71720    0.28280   1.00
Zn1      0.78280    0.78280    0.28280   1.00
O2       0.77350    0.72650    0.16180   1.00
O2       0.77350    0.66180    0.22650   1.00
O2       0.83820    0.72650    0.22650   1.00
O2       0.72650    0.77350    0.16180   1.00
O2       0.66180    0.77350    0.22650   1.00
O2       0.72650    0.83820    0.22650   1.00
O2       0.72650    0.66180    0.27350   1.00
O2       0.66180    0.72650    0.27350   1.00
O2       0.72650    0.72650    0.33820   1.00
O2       0.83820    0.77350    0.27350   1.00
O2       0.77350    0.83820    0.27350   1.00
O2       0.77350    0.77350    0.33820   1.00
C1       0.75000    0.75000    0.14480   1.00
C1       0.75000    0.64480    0.25000   1.00
C1       0.85520    0.75000    0.25000   1.00
C1       0.64480    0.75000    0.25000   1.00
C1       0.75000    0.85520    0.25000   1.00
C1       0.75000    0.75000    0.35520   1.00
O1       0.75000    0.25000    0.75000   1.00
Zn1      0.78280    0.21720    0.71720   1.00
Zn1      0.71720    0.28280    0.71720   1.00
Zn1      0.71720    0.21720    0.78280   1.00
Zn1      0.78280    0.28280    0.78280   1.00
O2       0.77350    0.22650    0.66180   1.00
O2       0.77350    0.16180    0.72650   1.00
O2       0.83820    0.22650    0.72650   1.00
O2       0.72650    0.27350    0.66180   1.00
O2       0.66180    0.27350    0.72650   1.00
O2       0.72650    0.33820    0.72650   1.00
O2       0.72650    0.16180    0.77350   1.00
O2       0.66180    0.22650    0.77350   1.00
O2       0.72650    0.22650    0.83820   1.00
O2       0.83820    0.27350    0.77350   1.00
O2       0.77350    0.33820    0.77350   1.00
O2       0.77350    0.27350    0.83820   1.00
C1       0.75000    0.25000    0.64480   1.00
C1       0.75000    0.14480    0.75000   1.00
C1       0.85520    0.25000    0.75000   1.00
C1       0.64480    0.25000    0.75000   1.00
C1       0.75000    0.35520    0.75000   1.00
C1       0.75000    0.25000    0.85520   1.00
O1       0.25000    0.75000    0.75000   1.00
Zn1      0.28280    0.71720    0.71720   1.00
Zn1      0.21720    0.78280    0.71720   1.00
Zn1      0.21720    0.71720    0.78280   1.00
Zn1      0.28280    0.78280    0.78280   1.00
O2       0.27350    0.72650    0.66180   1.00
O2       0.27350    0.66180    0.72650   1.00
O2       0.33820    0.72650    0.72650   1.00
O2       0.22650    0.77350    0.66180   1.00
O2       0.16180    0.77350    0.72650   1.00
O2       0.22650    0.83820    0.72650   1.00
O2       0.22650    0.66180    0.77350   1.00
O2       0.16180    0.72650    0.77350   1.00
O2       0.22650    0.72650    0.83820   1.00
O2       0.33820    0.77350    0.77350   1.00
O2       0.27350    0.83820    0.77350   1.00
O2       0.27350    0.77350    0.83820   1.00
C1       0.25000    0.75000    0.64480   1.00
C1       0.25000    0.64480    0.75000   1.00
C1       0.35520    0.75000    0.75000   1.00
C1       0.14480    0.75000    0.75000   1.00
C1       0.25000    0.85520    0.75000   1.00
C1       0.25000    0.75000    0.85520   1.00
O1       0.91500    0.91500    0.91500   1.00
Zn1      0.88220    0.94780    0.94780   1.00
Zn1      0.94780    0.88220    0.94780   1.00
Zn1      0.94780    0.94780    0.88220   1.00
Zn1      0.88220    0.88220    0.88220   1.00
O2       0.89150    0.93850    1.00320   1.00
O2       0.89150    1.00320    0.93850   1.00
O2       0.82680    0.93850    0.93850   1.00
O2       0.93850    0.89150    1.00320   1.00
O2       1.00320    0.89150    0.93850   1.00
O2       0.93850    0.82680    0.93850   1.00
O2       0.93850    1.00320    0.89150   1.00
O2       1.00320    0.93850    0.89150   1.00
O2       0.93850    0.93850    0.82680   1.00
O2       0.82680    0.89150    0.89150   1.00
O2       0.89150    0.82680    0.89150   1.00
O2       0.89150    0.89150    0.82680   1.00
C1       0.91500    0.91500    1.02020   1.00
C1       0.91500    1.02020    0.91500   1.00
C1       0.80980    0.91500    0.91500   1.00
C1       1.02020    0.91500    0.91500   1.00
C1       0.91500    0.80980    0.91500   1.00
C1       0.91500    0.91500    0.80980   1.00
O1       0.41500    0.41500    0.91500   1.00
Zn1      0.38220    0.44780    0.94780   1.00
Zn1      0.44780    0.38220    0.94780   1.00
Zn1      0.44780    0.44780    0.88220   1.00
Zn1      0.38220    0.38220    0.88220   1.00
O2       0.39150    0.43850    1.00320   1.00
O2       0.39150    0.50320    0.93850   1.00
O2       0.32680    0.43850    0.93850   1.00
O2       0.43850    0.39150    1.00320   1.00
O2       0.50320    0.39150    0.93850   1.00
O2       0.43850    0.32680    0.93850   1.00
O2       0.43850    0.50320    0.89150   1.00
O2       0.50320    0.43850    0.89150   1.00
O2       0.43850    0.43850    0.82680   1.00
O2       0.32680    0.39150    0.89150   1.00
O2       0.39150    0.32680    0.89150   1.00
O2       0.39150    0.39150    0.82680   1.00
C1       0.41500    0.41500    1.02020   1.00
C1       0.41500    0.52020    0.91500   1.00
C1       0.30980    0.41500    0.91500   1.00
C1       0.52020    0.41500    0.91500   1.00
C1       0.41500    0.30980    0.91500   1.00
C1       0.41500    0.41500    0.80980   1.00
O1       0.41500    0.91500    0.41500   1.00
Zn1      0.38220    0.94780    0.44780   1.00
Zn1      0.44780    0.88220    0.44780   1.00
Zn1      0.44780    0.94780    0.38220   1.00
Zn1      0.38220    0.88220    0.38220   1.00
O2       0.39150    0.93850    0.50320   1.00
O2       0.39150    1.00320    0.43850   1.00
O2       0.32680    0.93850    0.43850   1.00
O2       0.43850    0.89150    0.50320   1.00
O2       0.50320    0.89150    0.43850   1.00
O2       0.43850    0.82680    0.43850   1.00
O2       0.43850    1.00320    0.39150   1.00
O2       0.50320    0.93850    0.39150   1.00
O2       0.43850    0.93850    0.32680   1.00
O2       0.32680    0.89150    0.39150   1.00
O2       0.39150    0.82680    0.39150   1.00
O2       0.39150    0.89150    0.32680   1.00
C1       0.41500    0.91500    0.52020   1.00
C1       0.41500    1.02020    0.41500   1.00
C1       0.30980    0.91500    0.41500   1.00
C1       0.52020    0.91500    0.41500   1.00
C1       0.41500    0.80980    0.41500   1.00
C1       0.41500    0.91500    0.30980   1.00
O1       0.91500    0.41500    0.41500   1.00
Zn1      0.88220    0.44780    0.44780   1.00
Zn1      0.94780    0.38220    0.44780   1.00
Zn1      0.94780    0.44780    0.38220   1.00
Zn1      0.88220    0.38220    0.38220   1.00
O2       0.89150    0.43850    0.50320   1.00
O2       0.89150    0.50320    0.43850   1.00
O2       0.82680    0.43850    0.43850   1.00
O2       0.93850    0.39150    0.50320   1.00
O2       1.00320    0.39150    0.43850   1.00
O2       0.93850    0.32680    0.43850   1.00
O2       0.93850    0.50320    0.39150   1.00
O2       1.00320    0.43850    0.39150   1.00
O2       0.93850    0.43850    0.32680   1.00
O2       0.82680    0.39150    0.39150   1.00
O2       0.89150    0.32680    0.39150   1.00
O2       0.89150    0.39150    0.32680   1.00
C1       0.91500    0.41500    0.52020   1.00
C1       0.91500    0.52020    0.41500   1.00
C1       0.80980    0.41500    0.41500   1.00
C1       1.02020    0.41500    0.41500   1.00
C1       0.91500    0.30980    0.41500   1.00
C1       0.91500    0.41500    0.30980   1.00
O1       0.41500    0.41500    0.41500   1.00
Zn1      0.44780    0.38220    0.38220   1.00
Zn1      0.38220    0.44780    0.38220   1.00
Zn1      0.38220    0.38220    0.44780   1.00
Zn1      0.44780    0.44780    0.44780   1.00
O2       0.43850    0.39150    0.32680   1.00
O2       0.43850    0.32680    0.39150   1.00
O2       0.50320    0.39150    0.39150   1.00
O2       0.39150    0.43850    0.32680   1.00
O2       0.32680    0.43850    0.39150   1.00
O2       0.39150    0.50320    0.39150   1.00
O2       0.39150    0.32680    0.43850   1.00
O2       0.32680    0.39150    0.43850   1.00
O2       0.39150    0.39150    0.50320   1.00
O2       0.50320    0.43850    0.43850   1.00
O2       0.43850    0.50320    0.43850   1.00
O2       0.43850    0.43850    0.50320   1.00
C1       0.41500    0.41500    0.30980   1.00
C1       0.41500    0.30980    0.41500   1.00
C1       0.52020    0.41500    0.41500   1.00
C1       0.30980    0.41500    0.41500   1.00
C1       0.41500    0.52020    0.41500   1.00
C1       0.41500    0.41500    0.52020   1.00
O1       0.91500    0.91500    0.41500   1.00
Zn1      0.94780    0.88220    0.38220   1.00
Zn1      0.88220    0.94780    0.38220   1.00
Zn1      0.88220    0.88220    0.44780   1.00
Zn1      0.94780    0.94780    0.44780   1.00
O2       0.93850    0.89150    0.32680   1.00
O2       0.93850    0.82680    0.39150   1.00
O2       1.00320    0.89150    0.39150   1.00
O2       0.89150    0.93850    0.32680   1.00
O2       0.82680    0.93850    0.39150   1.00
O2       0.89150    1.00320    0.39150   1.00
O2       0.89150    0.82680    0.43850   1.00
O2       0.82680    0.89150    0.43850   1.00
O2       0.89150    0.89150    0.50320   1.00
O2       1.00320    0.93850    0.43850   1.00
O2       0.93850    1.00320    0.43850   1.00
O2       0.93850    0.93850    0.50320   1.00
C1       0.91500    0.91500    0.30980   1.00
C1       0.91500    0.80980    0.41500   1.00
C1       1.02020    0.91500    0.41500   1.00
C1       0.80980    0.91500    0.41500   1.00
C1       0.91500    1.02020    0.41500   1.00
C1       0.91500    0.91500    0.52020   1.00
O1       0.91500    0.41500    0.91500   1.00
Zn1      0.94780    0.38220    0.88220   1.00
Zn1      0.88220    0.44780    0.88220   1.00
Zn1      0.88220    0.38220    0.94780   1.00
Zn1      0.94780    0.44780    0.94780   1.00
O2       0.93850    0.39150    0.82680   1.00
O2       0.93850    0.32680    0.89150   1.00
O2       1.00320    0.39150    0.89150   1.00
O2       0.89150    0.43850    0.82680   1.00
O2       0.82680    0.43850    0.89150   1.00
O2       0.89150    0.50320    0.89150   1.00
O2       0.89150    0.32680    0.93850   1.00
O2       0.82680    0.39150    0.93850   1.00
O2       0.89150    0.39150    1.00320   1.00
O2       1.00320    0.43850    0.93850   1.00
O2       0.93850    0.50320    0.93850   1.00
O2       0.93850    0.43850    1.00320   1.00
C1       0.91500    0.41500    0.80980   1.00
C1       0.91500    0.30980    0.91500   1.00
C1       1.02020    0.41500    0.91500   1.00
C1       0.80980    0.41500    0.91500   1.00
C1       0.91500    0.52020    0.91500   1.00
C1       0.91500    0.41500    1.02020   1.00
O1       0.41500    0.91500    0.91500   1.00
Zn1      0.44780    0.88220    0.88220   1.00
Zn1      0.38220    0.94780    0.88220   1.00
Zn1      0.38220    0.88220    0.94780   1.00
Zn1      0.44780    0.94780    0.94780   1.00
O2       0.43850    0.89150    0.82680   1.00
O2       0.43850    0.82680    0.89150   1.00
O2       0.50320    0.89150    0.89150   1.00
O2       0.39150    0.93850    0.82680   1.00
O2       0.32680    0.93850    0.89150   1.00
O2       0.39150    1.00320    0.89150   1.00
O2       0.39150    0.82680    0.93850   1.00
O2       0.32680    0.89150    0.93850   1.00
O2       0.39150    0.89150    1.00320   1.00
O2       0.50320    0.93850    0.93850   1.00
O2       0.43850    1.00320    0.93850   1.00
O2       0.43850    0.93850    1.00320   1.00
C1       0.41500    0.91500    0.80980   1.00
C1       0.41500    0.80980    0.91500   1.00
C1       0.52020    0.91500    0.91500   1.00
C1       0.30980    0.91500    0.91500   1.00
C1       0.41500    1.02020    0.91500   1.00
C1       0.41500    0.91500    1.02020   1.00
C4       0.75000    0.75010    0.97915   1.00
C4       0.75000    0.74990    1.02085   1.00
C3       0.72494    0.77423    0.95708   1.00
C3       0.77918    0.76958    1.04225   1.00
C3       0.77568    0.72562    0.95816   1.00
C3a      0.72032    0.73034    1.04263   1.00
C2       0.75084    0.74875    0.89483   1.00
C2       0.74946    0.75137    1.10517   1.00
C3       0.72540    0.77350    0.91566   1.00
C3       0.77885    0.77028    1.08359   1.00
C3       0.77596    0.72484    0.91680   1.00
C3       0.72045    0.73149    1.08415   1.00
H1       0.70495    0.79367    0.97192   1.00
H1       0.80223    0.78477    1.02685   1.00
H1       0.70573    0.79235    0.89968   1.00
H1       0.80170    0.78578    1.09895   1.00
H1       0.79569    0.70527    0.90179   1.00
H1       0.69793    0.71647    1.10043   1.00
C5       0.68854    0.70726    1.02239   1.00
H1       0.79492    0.70621    0.97401   1.00
H2       0.66599    0.69745    1.04354   1.00
H2       0.67338    0.72637    1.00103   1.00
N1       0.70485    0.67294    1.00292   1.00
C6       0.72472    0.64372    1.02012   1.00
C6       0.70242    0.66462    0.96460   1.00
C6       0.73543    0.61657    0.99243   1.00
C6       0.72126    0.62987    0.95711   1.00
H3       0.73131    0.64226    1.05099   1.00
H3       0.68822    0.68291    0.94309   1.00
H3       0.75172    0.59002    0.99741   1.00
H3       0.72434    0.61585    0.92903   1.00
C4       0.75010    0.97915    0.75000   1.00
C4       0.74990    1.02085    0.75000   1.00
C3       0.77423    0.95708    0.72494   1.00
C3       0.76958    1.04225    0.77918   1.00
C3       0.72562    0.95816    0.77568   1.00
C3a      0.73034    1.04263    0.72032   1.00
C2       0.74875    0.89483    0.75084   1.00
C2       0.75137    1.10517    0.74946   1.00
C3       0.77350    0.91566    0.72540   1.00
C3       0.77028    1.08359    0.77885   1.00
C3       0.72484    0.91680    0.77596   1.00
C3       0.73149    1.08415    0.72045   1.00
H1       0.79367    0.97192    0.70495   1.00
H1       0.78477    1.02685    0.80223   1.00
H1       0.79235    0.89968    0.70573   1.00
H1       0.78578    1.09895    0.80170   1.00
H1       0.70527    0.90179    0.79569   1.00
H1       0.71647    1.10043    0.69793   1.00
C5       0.70726    1.02239    0.68854   1.00
H1       0.70621    0.97401    0.79492   1.00
H2       0.69745    1.04354    0.66599   1.00
H2       0.72637    1.00103    0.67338   1.00
N1       0.67294    1.00292    0.70485   1.00
C6       0.64372    1.02012    0.72472   1.00
C6       0.66462    0.96460    0.70242   1.00
C6       0.61657    0.99243    0.73543   1.00
C6       0.62987    0.95711    0.72126   1.00
H3       0.64226    1.05099    0.73131   1.00
H3       0.68291    0.94309    0.68822   1.00
H3       0.59002    0.99741    0.75172   1.00
H3       0.61585    0.92903    0.72434   1.00
C4       0.52085    0.75000    0.74990   1.00
C4       0.47915    0.75000    0.75010   1.00
C3       0.54292    0.72494    0.72577   1.00
C3       0.45775    0.77918    0.73042   1.00
C3       0.54184    0.77568    0.77438   1.00
C3a      0.45737    0.72032    0.76966   1.00
C2       0.60517    0.75084    0.75125   1.00
C2       0.39483    0.74946    0.74863   1.00
C3       0.58434    0.72540    0.72650   1.00
C3       0.41641    0.77885    0.72972   1.00
C3       0.58320    0.77596    0.77516   1.00
C3       0.41585    0.72045    0.76851   1.00
H1       0.52808    0.70495    0.70633   1.00
H1       0.47315    0.80223    0.71523   1.00
H1       0.60032    0.70573    0.70765   1.00
H1       0.40105    0.80170    0.71422   1.00
H1       0.59821    0.79569    0.79473   1.00
H1       0.39957    0.69793    0.78353   1.00
C5       0.47761    0.68854    0.79274   1.00
H1       0.52599    0.79492    0.79379   1.00
H2       0.45646    0.66599    0.80255   1.00
H2       0.49897    0.67338    0.77363   1.00
N1       0.49708    0.70485    0.82706   1.00
C6       0.47988    0.72472    0.85628   1.00
C6       0.53540    0.70242    0.83538   1.00
C6       0.50757    0.73543    0.88343   1.00
C6       0.54289    0.72126    0.87013   1.00
H3       0.44901    0.73131    0.85774   1.00
H3       0.55691    0.68822    0.81709   1.00
H3       0.50259    0.75172    0.90998   1.00
H3       0.57097    0.72434    0.88415   1.00
C4       0.97915    0.75000    0.75010   1.00
C4       1.02085    0.75000    0.74990   1.00
C3       0.95708    0.72494    0.77423   1.00
C3       1.04225    0.77918    0.76958   1.00
C3       0.95816    0.77568    0.72562   1.00
C3a      1.04263    0.72032    0.73034   1.00
C2       0.89483    0.75084    0.74875   1.00
C2       1.10517    0.74946    0.75137   1.00
C3       0.91566    0.72540    0.77350   1.00
C3       1.08359    0.77885    0.77028   1.00
C3       0.91680    0.77596    0.72484   1.00
C3       1.08415    0.72045    0.73149   1.00
H1       0.97192    0.70495    0.79367   1.00
H1       1.02685    0.80223    0.78477   1.00
H1       0.89968    0.70573    0.79235   1.00
H1       1.09895    0.80170    0.78578   1.00
H1       0.90179    0.79569    0.70527   1.00
H1       1.10043    0.69793    0.71647   1.00
C5       1.02239    0.68854    0.70726   1.00
H1       0.97401    0.79492    0.70621   1.00
H2       1.04354    0.66599    0.69745   1.00
H2       1.00103    0.67338    0.72637   1.00
N1       1.00292    0.70485    0.67294   1.00
C6       1.02012    0.72472    0.64372   1.00
C6       0.96460    0.70242    0.66462   1.00
C6       0.99243    0.73543    0.61657   1.00
C6       0.95711    0.72126    0.62987   1.00
H3       1.05099    0.73131    0.64226   1.00
H3       0.94309    0.68822    0.68291   1.00
H3       0.99741    0.75172    0.59002   1.00
H3       0.92903    0.72434    0.61585   1.00
C4       0.74990    0.52085    0.75000   1.00
C4       0.75010    0.47915    0.75000   1.00
C3       0.72577    0.54292    0.72494   1.00
C3       0.73042    0.45775    0.77918   1.00
C3       0.77438    0.54184    0.77568   1.00
C3a      0.76966    0.45737    0.72032   1.00
C2       0.75125    0.60517    0.75084   1.00
C2       0.74863    0.39483    0.74946   1.00
C3       0.72650    0.58434    0.72540   1.00
C3       0.72972    0.41641    0.77885   1.00
C3       0.77516    0.58320    0.77596   1.00
C3       0.76851    0.41585    0.72045   1.00
H1       0.70633    0.52808    0.70495   1.00
H1       0.71523    0.47315    0.80223   1.00
H1       0.70765    0.60032    0.70573   1.00
H1       0.71422    0.40105    0.80170   1.00
H1       0.79473    0.59821    0.79569   1.00
H1       0.78353    0.39957    0.69793   1.00
C5       0.79274    0.47761    0.68854   1.00
H1       0.79379    0.52599    0.79492   1.00
H2       0.80255    0.45646    0.66599   1.00
H2       0.77363    0.49897    0.67338   1.00
N1       0.82706    0.49708    0.70485   1.00
C6       0.85628    0.47988    0.72472   1.00
C6       0.83538    0.53540    0.70242   1.00
C6       0.88343    0.50757    0.73543   1.00
C6       0.87013    0.54289    0.72126   1.00
H3       0.85774    0.44901    0.73131   1.00
H3       0.81709    0.55691    0.68822   1.00
H3       0.90998    0.50259    0.75172   1.00
H3       0.88415    0.57097    0.72434   1.00
C4       0.75000    0.74990    0.52085   1.00
C4       0.75000    0.75010    0.47915   1.00
C3       0.72494    0.72577    0.54292   1.00
C3       0.77918    0.73042    0.45775   1.00
C3       0.77568    0.77438    0.54184   1.00
C3a      0.72032    0.76966    0.45737   1.00
C2       0.75084    0.75125    0.60517   1.00
C2       0.74946    0.74863    0.39483   1.00
C3       0.72540    0.72650    0.58434   1.00
C3       0.77885    0.72972    0.41641   1.00
C3       0.77596    0.77516    0.58320   1.00
C3       0.72045    0.76851    0.41585   1.00
H1       0.70495    0.70633    0.52808   1.00
H1       0.80223    0.71523    0.47315   1.00
H1       0.70573    0.70765    0.60032   1.00
H1       0.80170    0.71422    0.40105   1.00
H1       0.79569    0.79473    0.59821   1.00
H1       0.69793    0.78353    0.39957   1.00
C5       0.68854    0.79274    0.47761   1.00
H1       0.79492    0.79379    0.52599   1.00
H2       0.66599    0.80255    0.45646   1.00
H2       0.67338    0.77363    0.49897   1.00
N1       0.70485    0.82706    0.49708   1.00
C6       0.72472    0.85628    0.47988   1.00
C6       0.70242    0.83538    0.53540   1.00
C6       0.73543    0.88343    0.50757   1.00
C6       0.72126    0.87013    0.54289   1.00
H3       0.73131    0.85774    0.44901   1.00
H3       0.68822    0.81709    0.55691   1.00
H3       0.75172    0.90998    0.50259   1.00
H3       0.72434    0.88415    0.57097   1.00
C4       0.25000    0.25010    0.97915   1.00
C4       0.25000    0.24990    1.02085   1.00
C3       0.22494    0.27423    0.95708   1.00
C3       0.27918    0.26958    1.04225   1.00
C3       0.27568    0.22562    0.95816   1.00
C3a      0.22032    0.23034    1.04263   1.00
C2       0.25084    0.24875    0.89483   1.00
C2       0.24946    0.25137    1.10517   1.00
C3       0.22540    0.27350    0.91566   1.00
C3       0.27885    0.27028    1.08359   1.00
C3       0.27596    0.22484    0.91680   1.00
C3       0.22045    0.23149    1.08415   1.00
H1       0.20495    0.29367    0.97192   1.00
H1       0.30223    0.28477    1.02685   1.00
H1       0.20573    0.29235    0.89968   1.00
H1       0.30170    0.28578    1.09895   1.00
H1       0.29569    0.20527    0.90179   1.00
H1       0.19793    0.21647    1.10043   1.00
C5       0.18854    0.20726    1.02239   1.00
H1       0.29492    0.20621    0.97401   1.00
H2       0.16599    0.19745    1.04354   1.00
H2       0.17338    0.22637    1.00103   1.00
N1       0.20485    0.17294    1.00292   1.00
C6       0.22472    0.14372    1.02012   1.00
C6       0.20242    0.16462    0.96460   1.00
C6       0.23543    0.11657    0.99243   1.00
C6       0.22126    0.12987    0.95711   1.00
H3       0.23131    0.14226    1.05099   1.00
H3       0.18822    0.18291    0.94309   1.00
H3       0.25172    0.09002    0.99741   1.00
H3       0.22434    0.11585    0.92903   1.00
C4       0.25010    0.47915    0.75000   1.00
C4       0.24990    0.52085    0.75000   1.00
C3       0.27423    0.45708    0.72494   1.00
C3       0.26958    0.54225    0.77918   1.00
C3       0.22562    0.45816    0.77568   1.00
C3a      0.23034    0.54263    0.72032   1.00
C2       0.24875    0.39483    0.75084   1.00
C2       0.25137    0.60517    0.74946   1.00
C3       0.27350    0.41566    0.72540   1.00
C3       0.27028    0.58359    0.77885   1.00
C3       0.22484    0.41680    0.77596   1.00
C3       0.23149    0.58415    0.72045   1.00
H1       0.29367    0.47192    0.70495   1.00
H1       0.28477    0.52685    0.80223   1.00
H1       0.29235    0.39968    0.70573   1.00
H1       0.28578    0.59895    0.80170   1.00
H1       0.20527    0.40179    0.79569   1.00
H1       0.21647    0.60043    0.69793   1.00
C5       0.20726    0.52239    0.68854   1.00
H1       0.20621    0.47401    0.79492   1.00
H2       0.19745    0.54354    0.66599   1.00
H2       0.22637    0.50103    0.67338   1.00
N1       0.17294    0.50292    0.70485   1.00
C6       0.14372    0.52012    0.72472   1.00
C6       0.16462    0.46460    0.70242   1.00
C6       0.11657    0.49243    0.73543   1.00
C6       0.12987    0.45711    0.72126   1.00
H3       0.14226    0.55099    0.73131   1.00
H3       0.18291    0.44309    0.68822   1.00
H3       0.09002    0.49741    0.75172   1.00
H3       0.11585    0.42903    0.72434   1.00
C4       0.02085    0.25000    0.74990   1.00
C4       -0.02085   0.25000    0.75010   1.00
C3       0.04292    0.22494    0.72577   1.00
C3       -0.04225   0.27918    0.73042   1.00
C3       0.04184    0.27568    0.77438   1.00
C3a      -0.04263   0.22032    0.76966   1.00
C2       0.10517    0.25084    0.75125   1.00
C2       -0.10517   0.24946    0.74863   1.00
C3       0.08434    0.22540    0.72650   1.00
C3       -0.08359   0.27885    0.72972   1.00
C3       0.08320    0.27596    0.77516   1.00
C3       -0.08415   0.22045    0.76851   1.00
H1       0.02808    0.20495    0.70633   1.00
H1       -0.02685   0.30223    0.71523   1.00
H1       0.10032    0.20573    0.70765   1.00
H1       -0.09895   0.30170    0.71422   1.00
H1       0.09821    0.29569    0.79473   1.00
H1       -0.10043   0.19793    0.78353   1.00
C5       -0.02239   0.18854    0.79274   1.00
H1       0.02599    0.29492    0.79379   1.00
H2       -0.04354   0.16599    0.80255   1.00
H2       -0.00103   0.17338    0.77363   1.00
N1       -0.00292   0.20485    0.82706   1.00
C6       -0.02012   0.22472    0.85628   1.00
C6       0.03540    0.20242    0.83538   1.00
C6       0.00757    0.23543    0.88343   1.00
C6       0.04289    0.22126    0.87013   1.00
H3       -0.05099   0.23131    0.85774   1.00
H3       0.05691    0.18822    0.81709   1.00
H3       0.00259    0.25172    0.90998   1.00
H3       0.07097    0.22434    0.88415   1.00
C4       0.47915    0.25000    0.75010   1.00
C4       0.52085    0.25000    0.74990   1.00
C3       0.45708    0.22494    0.77423   1.00
C3       0.54225    0.27918    0.76958   1.00
C3       0.45816    0.27568    0.72562   1.00
C3a      0.54263    0.22032    0.73034   1.00
C2       0.39483    0.25084    0.74875   1.00
C2       0.60517    0.24946    0.75137   1.00
C3       0.41566    0.22540    0.77350   1.00
C3       0.58359    0.27885    0.77028   1.00
C3       0.41680    0.27596    0.72484   1.00
C3       0.58415    0.22045    0.73149   1.00
H1       0.47192    0.20495    0.79367   1.00
H1       0.52685    0.30223    0.78477   1.00
H1       0.39968    0.20573    0.79235   1.00
H1       0.59895    0.30170    0.78578   1.00
H1       0.40179    0.29569    0.70527   1.00
H1       0.60043    0.19793    0.71647   1.00
C5       0.52239    0.18854    0.70726   1.00
H1       0.47401    0.29492    0.70621   1.00
H2       0.54354    0.16599    0.69745   1.00
H2       0.50103    0.17338    0.72637   1.00
N1       0.50292    0.20485    0.67294   1.00
C6       0.52012    0.22472    0.64372   1.00
C6       0.46460    0.20242    0.66462   1.00
C6       0.49243    0.23543    0.61657   1.00
C6       0.45711    0.22126    0.62987   1.00
H3       0.55099    0.23131    0.64226   1.00
H3       0.44309    0.18822    0.68291   1.00
H3       0.49741    0.25172    0.59002   1.00
H3       0.42903    0.22434    0.61585   1.00
C4       0.24990    0.02085    0.75000   1.00
C4       0.25010    -0.02085   0.75000   1.00
C3       0.22577    0.04292    0.72494   1.00
C3       0.23042    -0.04225   0.77918   1.00
C3       0.27438    0.04184    0.77568   1.00
C3a      0.26966    -0.04263   0.72032   1.00
C2       0.25125    0.10517    0.75084   1.00
C2       0.24863    -0.10517   0.74946   1.00
C3       0.22650    0.08434    0.72540   1.00
C3       0.22972    -0.08359   0.77885   1.00
C3       0.27516    0.08320    0.77596   1.00
C3       0.26851    -0.08415   0.72045   1.00
H1       0.20633    0.02808    0.70495   1.00
H1       0.21523    -0.02685   0.80223   1.00
H1       0.20765    0.10032    0.70573   1.00
H1       0.21422    -0.09895   0.80170   1.00
H1       0.29473    0.09821    0.79569   1.00
H1       0.28353    -0.10043   0.69793   1.00
C5       0.29274    -0.02239   0.68854   1.00
H1       0.29379    0.02599    0.79492   1.00
H2       0.30255    -0.04354   0.66599   1.00
H2       0.27363    -0.00103   0.67338   1.00
N1       0.32706    -0.00292   0.70485   1.00
C6       0.35628    -0.02012   0.72472   1.00
C6       0.33538    0.03540    0.70242   1.00
C6       0.38343    0.00757    0.73543   1.00
C6       0.37013    0.04289    0.72126   1.00
H3       0.35774    -0.05099   0.73131   1.00
H3       0.31709    0.05691    0.68822   1.00
H3       0.40998    0.00259    0.75172   1.00
H3       0.38415    0.07097    0.72434   1.00
C4       0.25000    0.24990    0.52085   1.00
C4       0.25000    0.25010    0.47915   1.00
C3       0.22494    0.22577    0.54292   1.00
C3       0.27918    0.23042    0.45775   1.00
C3       0.27568    0.27438    0.54184   1.00
C3a      0.22032    0.26966    0.45737   1.00
C2       0.25084    0.25125    0.60517   1.00
C2       0.24946    0.24863    0.39483   1.00
C3       0.22540    0.22650    0.58434   1.00
C3       0.27885    0.22972    0.41641   1.00
C3       0.27596    0.27516    0.58320   1.00
C3       0.22045    0.26851    0.41585   1.00
H1       0.20495    0.20633    0.52808   1.00
H1       0.30223    0.21523    0.47315   1.00
H1       0.20573    0.20765    0.60032   1.00
H1       0.30170    0.21422    0.40105   1.00
H1       0.29569    0.29473    0.59821   1.00
H1       0.19793    0.28353    0.39957   1.00
C5       0.18854    0.29274    0.47761   1.00
H1       0.29492    0.29379    0.52599   1.00
H2       0.16599    0.30255    0.45646   1.00
H2       0.17338    0.27363    0.49897   1.00
N1       0.20485    0.32706    0.49708   1.00
C6       0.22472    0.35628    0.47988   1.00
C6       0.20242    0.33538    0.53540   1.00
C6       0.23543    0.38343    0.50757   1.00
C6       0.22126    0.37013    0.54289   1.00
H3       0.23131    0.35774    0.44901   1.00
H3       0.18822    0.31709    0.55691   1.00
H3       0.25172    0.40998    0.50259   1.00
H3       0.22434    0.38415    0.57097   1.00
C4       0.25000    0.75010    0.47915   1.00
C4       0.25000    0.74990    0.52085   1.00
C3       0.22494    0.77423    0.45708   1.00
C3       0.27918    0.76958    0.54225   1.00
C3       0.27568    0.72562    0.45816   1.00
C3a      0.22032    0.73034    0.54263   1.00
C2       0.25084    0.74875    0.39483   1.00
C2       0.24946    0.75137    0.60517   1.00
C3       0.22540    0.77350    0.41566   1.00
C3       0.27885    0.77028    0.58359   1.00
C3       0.27596    0.72484    0.41680   1.00
C3       0.22045    0.73149    0.58415   1.00
H1       0.20495    0.79367    0.47192   1.00
H1       0.30223    0.78477    0.52685   1.00
H1       0.20573    0.79235    0.39968   1.00
H1       0.30170    0.78578    0.59895   1.00
H1       0.29569    0.70527    0.40179   1.00
H1       0.19793    0.71647    0.60043   1.00
C5       0.18854    0.70726    0.52239   1.00
H1       0.29492    0.70621    0.47401   1.00
H2       0.16599    0.69745    0.54354   1.00
H2       0.17338    0.72637    0.50103   1.00
N1       0.20485    0.67294    0.50292   1.00
C6       0.22472    0.64372    0.52012   1.00
C6       0.20242    0.66462    0.46460   1.00
C6       0.23543    0.61657    0.49243   1.00
C6       0.22126    0.62987    0.45711   1.00
H3       0.23131    0.64226    0.55099   1.00
H3       0.18822    0.68291    0.44309   1.00
H3       0.25172    0.59002    0.49741   1.00
H3       0.22434    0.61585    0.42903   1.00
C4       0.25010    0.97915    0.25000   1.00
C4       0.24990    1.02085    0.25000   1.00
C3       0.27423    0.95708    0.22494   1.00
C3       0.26958    1.04225    0.27918   1.00
C3       0.22562    0.95816    0.27568   1.00
C3a      0.23034    1.04263    0.22032   1.00
C2       0.24875    0.89483    0.25084   1.00
C2       0.25137    1.10517    0.24946   1.00
C3       0.27350    0.91566    0.22540   1.00
C3       0.27028    1.08359    0.27885   1.00
C3       0.22484    0.91680    0.27596   1.00
C3       0.23149    1.08415    0.22045   1.00
H1       0.29367    0.97192    0.20495   1.00
H1       0.28477    1.02685    0.30223   1.00
H1       0.29235    0.89968    0.20573   1.00
H1       0.28578    1.09895    0.30170   1.00
H1       0.20527    0.90179    0.29569   1.00
H1       0.21647    1.10043    0.19793   1.00
C5       0.20726    1.02239    0.18854   1.00
H1       0.20621    0.97401    0.29492   1.00
H2       0.19745    1.04354    0.16599   1.00
H2       0.22637    1.00103    0.17338   1.00
N1       0.17294    1.00292    0.20485   1.00
C6       0.14372    1.02012    0.22472   1.00
C6       0.16462    0.96460    0.20242   1.00
C6       0.11657    0.99243    0.23543   1.00
C6       0.12987    0.95711    0.22126   1.00
H3       0.14226    1.05099    0.23131   1.00
H3       0.18291    0.94309    0.18822   1.00
H3       0.09002    0.99741    0.25172   1.00
H3       0.11585    0.92903    0.22434   1.00
C4       0.02085    0.75000    0.24990   1.00
C4       -0.02085   0.75000    0.25010   1.00
C3       0.04292    0.72494    0.22577   1.00
C3       -0.04225   0.77918    0.23042   1.00
C3       0.04184    0.77568    0.27438   1.00
C3a      -0.04263   0.72032    0.26966   1.00
C2       0.10517    0.75084    0.25125   1.00
C2       -0.10517   0.74946    0.24863   1.00
C3       0.08434    0.72540    0.22650   1.00
C3       -0.08359   0.77885    0.22972   1.00
C3       0.08320    0.77596    0.27516   1.00
C3       -0.08415   0.72045    0.26851   1.00
H1       0.02808    0.70495    0.20633   1.00
H1       -0.02685   0.80223    0.21523   1.00
H1       0.10032    0.70573    0.20765   1.00
H1       -0.09895   0.80170    0.21422   1.00
H1       0.09821    0.79569    0.29473   1.00
H1       -0.10043   0.69793    0.28353   1.00
C5       -0.02239   0.68854    0.29274   1.00
H1       0.02599    0.79492    0.29379   1.00
H2       -0.04354   0.66599    0.30255   1.00
H2       -0.00103   0.67338    0.27363   1.00
N1       -0.00292   0.70485    0.32706   1.00
C6       -0.02012   0.72472    0.35628   1.00
C6       0.03540    0.70242    0.33538   1.00
C6       0.00757    0.73543    0.38343   1.00
C6       0.04289    0.72126    0.37013   1.00
H3       -0.05099   0.73131    0.35774   1.00
H3       0.05691    0.68822    0.31709   1.00
H3       0.00259    0.75172    0.40998   1.00
H3       0.07097    0.72434    0.38415   1.00
C4       0.47915    0.75000    0.25010   1.00
C4       0.52085    0.75000    0.24990   1.00
C3       0.45708    0.72494    0.27423   1.00
C3       0.54225    0.77918    0.26958   1.00
C3       0.45816    0.77568    0.22562   1.00
C3a      0.54263    0.72032    0.23034   1.00
C2       0.39483    0.75084    0.24875   1.00
C2       0.60517    0.74946    0.25137   1.00
C3       0.41566    0.72540    0.27350   1.00
C3       0.58359    0.77885    0.27028   1.00
C3       0.41680    0.77596    0.22484   1.00
C3       0.58415    0.72045    0.23149   1.00
H1       0.47192    0.70495    0.29367   1.00
H1       0.52685    0.80223    0.28477   1.00
H1       0.39968    0.70573    0.29235   1.00
H1       0.59895    0.80170    0.28578   1.00
H1       0.40179    0.79569    0.20527   1.00
H1       0.60043    0.69793    0.21647   1.00
C5       0.52239    0.68854    0.20726   1.00
H1       0.47401    0.79492    0.20621   1.00
H2       0.54354    0.66599    0.19745   1.00
H2       0.50103    0.67338    0.22637   1.00
N1       0.50292    0.70485    0.17294   1.00
C6       0.52012    0.72472    0.14372   1.00
C6       0.46460    0.70242    0.16462   1.00
C6       0.49243    0.73543    0.11657   1.00
C6       0.45711    0.72126    0.12987   1.00
H3       0.55099    0.73131    0.14226   1.00
H3       0.44309    0.68822    0.18291   1.00
H3       0.49741    0.75172    0.09002   1.00
H3       0.42903    0.72434    0.11585   1.00
C4       0.24990    0.52085    0.25000   1.00
C4       0.25010    0.47915    0.25000   1.00
C3       0.22577    0.54292    0.22494   1.00
C3       0.23042    0.45775    0.27918   1.00
C3       0.27438    0.54184    0.27568   1.00
C3a      0.26966    0.45737    0.22032   1.00
C2       0.25125    0.60517    0.25084   1.00
C2       0.24863    0.39483    0.24946   1.00
C3       0.22650    0.58434    0.22540   1.00
C3       0.22972    0.41641    0.27885   1.00
C3       0.27516    0.58320    0.27596   1.00
C3       0.26851    0.41585    0.22045   1.00
H1       0.20633    0.52808    0.20495   1.00
H1       0.21523    0.47315    0.30223   1.00
H1       0.20765    0.60032    0.20573   1.00
H1       0.21422    0.40105    0.30170   1.00
H1       0.29473    0.59821    0.29569   1.00
H1       0.28353    0.39957    0.19793   1.00
C5       0.29274    0.47761    0.18854   1.00
H1       0.29379    0.52599    0.29492   1.00
H2       0.30255    0.45646    0.16599   1.00
H2       0.27363    0.49897    0.17338   1.00
N1       0.32706    0.49708    0.20485   1.00
C6       0.35628    0.47988    0.22472   1.00
C6       0.33538    0.53540    0.20242   1.00
C6       0.38343    0.50757    0.23543   1.00
C6       0.37013    0.54289    0.22126   1.00
H3       0.35774    0.44901    0.23131   1.00
H3       0.31709    0.55691    0.18822   1.00
H3       0.40998    0.50259    0.25172   1.00
H3       0.38415    0.57097    0.22434   1.00
C4       0.25000    0.74990    0.02085   1.00
C4       0.25000    0.75010    -0.02085   1.00
C3       0.22494    0.72577    0.04292   1.00
C3       0.27918    0.73042    -0.04225   1.00
C3       0.27568    0.77438    0.04184   1.00
C3a      0.22032    0.76966    -0.04263   1.00
C2       0.25084    0.75125    0.10517   1.00
C2       0.24946    0.74863    -0.10517   1.00
C3       0.22540    0.72650    0.08434   1.00
C3       0.27885    0.72972    -0.08359   1.00
C3       0.27596    0.77516    0.08320   1.00
C3       0.22045    0.76851    -0.08415   1.00
H1       0.20495    0.70633    0.02808   1.00
H1       0.30223    0.71523    -0.02685   1.00
H1       0.20573    0.70765    0.10032   1.00
H1       0.30170    0.71422    -0.09895   1.00
H1       0.29569    0.79473    0.09821   1.00
H1       0.19793    0.78353    -0.10043   1.00
C5       0.18854    0.79274    -0.02239   1.00
H1       0.29492    0.79379    0.02599   1.00
H2       0.16599    0.80255    -0.04354   1.00
H2       0.17338    0.77363    -0.00103   1.00
N1       0.20485    0.82706    -0.00292   1.00
C6       0.22472    0.85628    -0.02012   1.00
C6       0.20242    0.83538    0.03540   1.00
C6       0.23543    0.88343    0.00757   1.00
C6       0.22126    0.87013    0.04289   1.00
H3       0.23131    0.85774    -0.05099   1.00
H3       0.18822    0.81709    0.05691   1.00
H3       0.25172    0.90998    0.00259   1.00
H3       0.22434    0.88415    0.07097   1.00
C4       0.75000    0.25010    0.47915   1.00
C4       0.75000    0.24990    0.52085   1.00
C3       0.72494    0.27423    0.45708   1.00
C3       0.77918    0.26958    0.54225   1.00
C3       0.77568    0.22562    0.45816   1.00
C3a      0.72032    0.23034    0.54263   1.00
C2       0.75084    0.24875    0.39483   1.00
C2       0.74946    0.25137    0.60517   1.00
C3       0.72540    0.27350    0.41566   1.00
C3       0.77885    0.27028    0.58359   1.00
C3       0.77596    0.22484    0.41680   1.00
C3       0.72045    0.23149    0.58415   1.00
H1       0.70495    0.29367    0.47192   1.00
H1       0.80223    0.28477    0.52685   1.00
H1       0.70573    0.29235    0.39968   1.00
H1       0.80170    0.28578    0.59895   1.00
H1       0.79569    0.20527    0.40179   1.00
H1       0.69793    0.21647    0.60043   1.00
C5       0.68854    0.20726    0.52239   1.00
H1       0.79492    0.20621    0.47401   1.00
H2       0.66599    0.19745    0.54354   1.00
H2       0.67338    0.22637    0.50103   1.00
N1       0.70485    0.17294    0.50292   1.00
C6       0.72472    0.14372    0.52012   1.00
C6       0.70242    0.16462    0.46460   1.00
C6       0.73543    0.11657    0.49243   1.00
C6       0.72126    0.12987    0.45711   1.00
H3       0.73131    0.14226    0.55099   1.00
H3       0.68822    0.18291    0.44309   1.00
H3       0.75172    0.09002    0.49741   1.00
H3       0.72434    0.11585    0.42903   1.00
C4       0.75010    0.47915    0.25000   1.00
C4       0.74990    0.52085    0.25000   1.00
C3       0.77423    0.45708    0.22494   1.00
C3       0.76958    0.54225    0.27918   1.00
C3       0.72562    0.45816    0.27568   1.00
C3a      0.73034    0.54263    0.22032   1.00
C2       0.74875    0.39483    0.25084   1.00
C2       0.75137    0.60517    0.24946   1.00
C3       0.77350    0.41566    0.22540   1.00
C3       0.77028    0.58359    0.27885   1.00
C3       0.72484    0.41680    0.27596   1.00
C3       0.73149    0.58415    0.22045   1.00
H1       0.79367    0.47192    0.20495   1.00
H1       0.78477    0.52685    0.30223   1.00
H1       0.79235    0.39968    0.20573   1.00
H1       0.78578    0.59895    0.30170   1.00
H1       0.70527    0.40179    0.29569   1.00
H1       0.71647    0.60043    0.19793   1.00
C5       0.70726    0.52239    0.18854   1.00
H1       0.70621    0.47401    0.29492   1.00
H2       0.69745    0.54354    0.16599   1.00
H2       0.72637    0.50103    0.17338   1.00
N1       0.67294    0.50292    0.20485   1.00
C6       0.64372    0.52012    0.22472   1.00
C6       0.66462    0.46460    0.20242   1.00
C6       0.61657    0.49243    0.23543   1.00
C6       0.62987    0.45711    0.22126   1.00
H3       0.64226    0.55099    0.23131   1.00
H3       0.68291    0.44309    0.18822   1.00
H3       0.59002    0.49741    0.25172   1.00
H3       0.61585    0.42903    0.22434   1.00
C4       0.52085    0.25000    0.24990   1.00
C4       0.47915    0.25000    0.25010   1.00
C3       0.54292    0.22494    0.22577   1.00
C3       0.45775    0.27918    0.23042   1.00
C3       0.54184    0.27568    0.27438   1.00
C3a      0.45737    0.22032    0.26966   1.00
C2       0.60517    0.25084    0.25125   1.00
C2       0.39483    0.24946    0.24863   1.00
C3       0.58434    0.22540    0.22650   1.00
C3       0.41641    0.27885    0.22972   1.00
C3       0.58320    0.27596    0.27516   1.00
C3       0.41585    0.22045    0.26851   1.00
H1       0.52808    0.20495    0.20633   1.00
H1       0.47315    0.30223    0.21523   1.00
H1       0.60032    0.20573    0.20765   1.00
H1       0.40105    0.30170    0.21422   1.00
H1       0.59821    0.29569    0.29473   1.00
H1       0.39957    0.19793    0.28353   1.00
C5       0.47761    0.18854    0.29274   1.00
H1       0.52599    0.29492    0.29379   1.00
H2       0.45646    0.16599    0.30255   1.00
H2       0.49897    0.17338    0.27363   1.00
N1       0.49708    0.20485    0.32706   1.00
C6       0.47988    0.22472    0.35628   1.00
C6       0.53540    0.20242    0.33538   1.00
C6       0.50757    0.23543    0.38343   1.00
C6       0.54289    0.22126    0.37013   1.00
H3       0.44901    0.23131    0.35774   1.00
H3       0.55691    0.18822    0.31709   1.00
H3       0.50259    0.25172    0.40998   1.00
H3       0.57097    0.22434    0.38415   1.00
C4       0.97915    0.25000    0.25010   1.00
C4       1.02085    0.25000    0.24990   1.00
C3       0.95708    0.22494    0.27423   1.00
C3       1.04225    0.27918    0.26958   1.00
C3       0.95816    0.27568    0.22562   1.00
C3a      1.04263    0.22032    0.23034   1.00
C2       0.89483    0.25084    0.24875   1.00
C2       1.10517    0.24946    0.25137   1.00
C3       0.91566    0.22540    0.27350   1.00
C3       1.08359    0.27885    0.27028   1.00
C3       0.91680    0.27596    0.22484   1.00
C3       1.08415    0.22045    0.23149   1.00
H1       0.97192    0.20495    0.29367   1.00
H1       1.02685    0.30223    0.28477   1.00
H1       0.89968    0.20573    0.29235   1.00
H1       1.09895    0.30170    0.28578   1.00
H1       0.90179    0.29569    0.20527   1.00
H1       1.10043    0.19793    0.21647   1.00
C5       1.02239    0.18854    0.20726   1.00
H1       0.97401    0.29492    0.20621   1.00
H2       1.04354    0.16599    0.19745   1.00
H2       1.00103    0.17338    0.22637   1.00
N1       1.00292    0.20485    0.17294   1.00
C6       1.02012    0.22472    0.14372   1.00
C6       0.96460    0.20242    0.16462   1.00
C6       0.99243    0.23543    0.11657   1.00
C6       0.95711    0.22126    0.12987   1.00
H3       1.05099    0.23131    0.14226   1.00
H3       0.94309    0.18822    0.18291   1.00
H3       0.99741    0.25172    0.09002   1.00
H3       0.92903    0.22434    0.11585   1.00
C4       0.74990    0.02085    0.25000   1.00
C4       0.75010    -0.02085   0.25000   1.00
C3       0.72577    0.04292    0.22494   1.00
C3       0.73042    -0.04225   0.27918   1.00
C3       0.77438    0.04184    0.27568   1.00
C3a      0.76966    -0.04263   0.22032   1.00
C2       0.75125    0.10517    0.25084   1.00
C2       0.74863    -0.10517   0.24946   1.00
C3       0.72650    0.08434    0.22540   1.00
C3       0.72972    -0.08359   0.27885   1.00
C3       0.77516    0.08320    0.27596   1.00
C3       0.76851    -0.08415   0.22045   1.00
H1       0.70633    0.02808    0.20495   1.00
H1       0.71523    -0.02685   0.30223   1.00
H1       0.70765    0.10032    0.20573   1.00
H1       0.71422    -0.09895   0.30170   1.00
H1       0.79473    0.09821    0.29569   1.00
H1       0.78353    -0.10043   0.19793   1.00
C5       0.79274    -0.02239   0.18854   1.00
H1       0.79379    0.02599    0.29492   1.00
H2       0.80255    -0.04354   0.16599   1.00
H2       0.77363    -0.00103   0.17338   1.00
N1       0.82706    -0.00292   0.20485   1.00
C6       0.85628    -0.02012   0.22472   1.00
C6       0.83538    0.03540    0.20242   1.00
C6       0.88343    0.00757    0.23543   1.00
C6       0.87013    0.04289    0.22126   1.00
H3       0.85774    -0.05099   0.23131   1.00
H3       0.81709    0.05691    0.18822   1.00
H3       0.90998    0.00259    0.25172   1.00
H3       0.88415    0.07097    0.22434   1.00
C4       0.75000    0.24990    0.02085   1.00
C4       0.75000    0.25010    -0.02085   1.00
C3       0.72494    0.22577    0.04292   1.00
C3       0.77918    0.23042    -0.04225   1.00
C3       0.77568    0.27438    0.04184   1.00
C3a      0.72032    0.26966    -0.04263   1.00
C2       0.75084    0.25125    0.10517   1.00
C2       0.74946    0.24863    -0.10517   1.00
C3       0.72540    0.22650    0.08434   1.00
C3       0.77885    0.22972    -0.08359   1.00
C3       0.77596    0.27516    0.08320   1.00
C3       0.72045    0.26851    -0.08415   1.00
H1       0.70495    0.20633    0.02808   1.00
H1       0.80223    0.21523    -0.02685   1.00
H1       0.70573    0.20765    0.10032   1.00
H1       0.80170    0.21422    -0.09895   1.00
H1       0.79569    0.29473    0.09821   1.00
H1       0.69793    0.28353    -0.10043   1.00
C5       0.68854    0.29274    -0.02239   1.00
H1       0.79492    0.29379    0.02599   1.00
H2       0.66599    0.30255    -0.04354   1.00
H2       0.67338    0.27363    -0.00103   1.00
N1       0.70485    0.32706    -0.00292   1.00
C6       0.72472    0.35628    -0.02012   1.00
C6       0.70242    0.33538    0.03540   1.00
C6       0.73543    0.38343    0.00757   1.00
C6       0.72126    0.37013    0.04289   1.00
H3       0.73131    0.35774    -0.05099   1.00
H3       0.68822    0.31709    0.05691   1.00
H3       0.75172    0.40998    0.00259   1.00
H3       0.72434    0.38415    0.07097   1.00
C4       0.91500    0.91510    1.14415   1.00
C4       0.91500    0.91490    1.18585   1.00
C3       0.88994    0.93923    1.12208   1.00
C3       0.94418    0.93458    1.20725   1.00
C3       0.94068    0.89062    1.12316   1.00
C3a      0.88532    0.89534    1.20763   1.00
C2       0.91584    0.91375    1.05983   1.00
C2       0.91446    0.91637    1.27017   1.00
C3       0.89040    0.93850    1.08066   1.00
C3       0.94385    0.93528    1.24859   1.00
C3       0.94096    0.88984    1.08180   1.00
C3       0.88545    0.89649    1.24915   1.00
H1       0.86995    0.95867    1.13692   1.00
H1       0.96723    0.94977    1.19185   1.00
H1       0.87073    0.95735    1.06468   1.00
H1       0.96670    0.95078    1.26395   1.00
H1       0.96069    0.87027    1.06679   1.00
H1       0.86293    0.88147    1.26543   1.00
C5       0.85354    0.87226    1.18739   1.00
H1       0.95992    0.87121    1.13901   1.00
H2       0.83099    0.86245    1.20854   1.00
H2       0.83838    0.89137    1.16603   1.00
N1       0.86985    0.83794    1.16792   1.00
C6       0.88972    0.80872    1.18512   1.00
C6       0.86742    0.82962    1.12960   1.00
C6       0.90043    0.78157    1.15743   1.00
C6       0.88626    0.79487    1.12211   1.00
H3       0.89631    0.80726    1.21599   1.00
H3       0.85322    0.84791    1.10809   1.00
H3       0.91672    0.75502    1.16241   1.00
H3       0.88934    0.78085    1.09403   1.00
C4       0.91510    1.14415    0.91500   1.00
C4       0.91490    1.18585    0.91500   1.00
C3       0.93923    1.12208    0.88994   1.00
C3       0.93458    1.20725    0.94418   1.00
C3       0.89062    1.12316    0.94068   1.00
C3a      0.89534    1.20763    0.88532   1.00
C2       0.91375    1.05983    0.91584   1.00
C2       0.91637    1.27017    0.91446   1.00
C3       0.93850    1.08066    0.89040   1.00
C3       0.93528    1.24859    0.94385   1.00
C3       0.88984    1.08180    0.94096   1.00
C3       0.89649    1.24915    0.88545   1.00
H1       0.95867    1.13692    0.86995   1.00
H1       0.94977    1.19185    0.96723   1.00
H1       0.95735    1.06468    0.87073   1.00
H1       0.95078    1.26395    0.96670   1.00
H1       0.87027    1.06679    0.96069   1.00
H1       0.88147    1.26543    0.86293   1.00
C5       0.87226    1.18739    0.85354   1.00
H1       0.87121    1.13901    0.95992   1.00
H2       0.86245    1.20854    0.83099   1.00
H2       0.89137    1.16603    0.83838   1.00
N1       0.83794    1.16792    0.86985   1.00
C6       0.80872    1.18512    0.88972   1.00
C6       0.82962    1.12960    0.86742   1.00
C6       0.78157    1.15743    0.90043   1.00
C6       0.79487    1.12211    0.88626   1.00
H3       0.80726    1.21599    0.89631   1.00
H3       0.84791    1.10809    0.85322   1.00
H3       0.75502    1.16241    0.91672   1.00
H3       0.78085    1.09403    0.88934   1.00
C4       0.68585    0.91500    0.91490   1.00
C4       0.64415    0.91500    0.91510   1.00
C3       0.70792    0.88994    0.89077   1.00
C3       0.62275    0.94418    0.89542   1.00
C3       0.70684    0.94068    0.93938   1.00
C3a      0.62237    0.88532    0.93466   1.00
C2       0.77017    0.91584    0.91625   1.00
C2       0.55983    0.91446    0.91363   1.00
C3       0.74934    0.89040    0.89150   1.00
C3       0.58141    0.94385    0.89472   1.00
C3       0.74820    0.94096    0.94016   1.00
C3       0.58085    0.88545    0.93351   1.00
H1       0.69308    0.86995    0.87133   1.00
H1       0.63815    0.96723    0.88023   1.00
H1       0.76532    0.87073    0.87265   1.00
H1       0.56605    0.96670    0.87922   1.00
H1       0.76321    0.96069    0.95973   1.00
H1       0.56457    0.86293    0.94853   1.00
C5       0.64261    0.85354    0.95774   1.00
H1       0.69099    0.95992    0.95879   1.00
H2       0.62146    0.83099    0.96755   1.00
H2       0.66397    0.83838    0.93863   1.00
N1       0.66208    0.86985    0.99206   1.00
C6       0.64488    0.88972    1.02128   1.00
C6       0.70040    0.86742    1.00038   1.00
C6       0.67257    0.90043    1.04843   1.00
C6       0.70789    0.88626    1.03513   1.00
H3       0.61401    0.89631    1.02274   1.00
H3       0.72191    0.85322    0.98209   1.00
H3       0.66759    0.91672    1.07498   1.00
H3       0.73597    0.88934    1.04915   1.00
C4       1.14415    0.91500    0.91510   1.00
C4       1.18585    0.91500    0.91490   1.00
C3       1.12208    0.88994    0.93923   1.00
C3       1.20725    0.94418    0.93458   1.00
C3       1.12316    0.94068    0.89062   1.00
C3a      1.20763    0.88532    0.89534   1.00
C2       1.05983    0.91584    0.91375   1.00
C2       1.27017    0.91446    0.91637   1.00
C3       1.08066    0.89040    0.93850   1.00
C3       1.24859    0.94385    0.93528   1.00
C3       1.08180    0.94096    0.88984   1.00
C3       1.24915    0.88545    0.89649   1.00
H1       1.13692    0.86995    0.95867   1.00
H1       1.19185    0.96723    0.94977   1.00
H1       1.06468    0.87073    0.95735   1.00
H1       1.26395    0.96670    0.95078   1.00
H1       1.06679    0.96069    0.87027   1.00
H1       1.26543    0.86293    0.88147   1.00
C5       1.18739    0.85354    0.87226   1.00
H1       1.13901    0.95992    0.87121   1.00
H2       1.20854    0.83099    0.86245   1.00
H2       1.16603    0.83838    0.89137   1.00
N1       1.16792    0.86985    0.83794   1.00
C6       1.18512    0.88972    0.80872   1.00
C6       1.12960    0.86742    0.82962   1.00
C6       1.15743    0.90043    0.78157   1.00
C6       1.12211    0.88626    0.79487   1.00
H3       1.21599    0.89631    0.80726   1.00
H3       1.10809    0.85322    0.84791   1.00
H3       1.16241    0.91672    0.75502   1.00
H3       1.09403    0.88934    0.78085   1.00
C4       0.91490    0.68585    0.91500   1.00
C4       0.91510    0.64415    0.91500   1.00
C3       0.89077    0.70792    0.88994   1.00
C3       0.89542    0.62275    0.94418   1.00
C3       0.93938    0.70684    0.94068   1.00
C3a      0.93466    0.62237    0.88532   1.00
C2       0.91625    0.77017    0.91584   1.00
C2       0.91363    0.55983    0.91446   1.00
C3       0.89150    0.74934    0.89040   1.00
C3       0.89472    0.58141    0.94385   1.00
C3       0.94016    0.74820    0.94096   1.00
C3       0.93351    0.58085    0.88545   1.00
H1       0.87133    0.69308    0.86995   1.00
H1       0.88023    0.63815    0.96723   1.00
H1       0.87265    0.76532    0.87073   1.00
H1       0.87922    0.56605    0.96670   1.00
H1       0.95973    0.76321    0.96069   1.00
H1       0.94853    0.56457    0.86293   1.00
C5       0.95774    0.64261    0.85354   1.00
H1       0.95879    0.69099    0.95992   1.00
H2       0.96755    0.62146    0.83099   1.00
H2       0.93863    0.66397    0.83838   1.00
N1       0.99206    0.66208    0.86985   1.00
C6       1.02128    0.64488    0.88972   1.00
C6       1.00038    0.70040    0.86742   1.00
C6       1.04843    0.67257    0.90043   1.00
C6       1.03513    0.70789    0.88626   1.00
H3       1.02274    0.61401    0.89631   1.00
H3       0.98209    0.72191    0.85322   1.00
H3       1.07498    0.66759    0.91672   1.00
H3       1.04915    0.73597    0.88934   1.00
C4       0.91500    0.91490    0.68585   1.00
C4       0.91500    0.91510    0.64415   1.00
C3       0.88994    0.89077    0.70792   1.00
C3       0.94418    0.89542    0.62275   1.00
C3       0.94068    0.93938    0.70684   1.00
C3a      0.88532    0.93466    0.62237   1.00
C2       0.91584    0.91625    0.77017   1.00
C2       0.91446    0.91363    0.55983   1.00
C3       0.89040    0.89150    0.74934   1.00
C3       0.94385    0.89472    0.58141   1.00
C3       0.94096    0.94016    0.74820   1.00
C3       0.88545    0.93351    0.58085   1.00
H1       0.86995    0.87133    0.69308   1.00
H1       0.96723    0.88023    0.63815   1.00
H1       0.87073    0.87265    0.76532   1.00
H1       0.96670    0.87922    0.56605   1.00
H1       0.96069    0.95973    0.76321   1.00
H1       0.86293    0.94853    0.56457   1.00
C5       0.85354    0.95774    0.64261   1.00
H1       0.95992    0.95879    0.69099   1.00
H2       0.83099    0.96755    0.62146   1.00
H2       0.83838    0.93863    0.66397   1.00
N1       0.86985    0.99206    0.66208   1.00
C6       0.88972    1.02128    0.64488   1.00
C6       0.86742    1.00038    0.70040   1.00
C6       0.90043    1.04843    0.67257   1.00
C6       0.88626    1.03513    0.70789   1.00
H3       0.89631    1.02274    0.61401   1.00
H3       0.85322    0.98209    0.72191   1.00
H3       0.91672    1.07498    0.66759   1.00
H3       0.88934    1.04915    0.73597   1.00
C4       0.41500    0.41510    1.14415   1.00
C4       0.41500    0.41490    1.18585   1.00
C3       0.38994    0.43923    1.12208   1.00
C3       0.44418    0.43458    1.20725   1.00
C3       0.44068    0.39062    1.12316   1.00
C3a      0.38532    0.39534    1.20763   1.00
C2       0.41584    0.41375    1.05983   1.00
C2       0.41446    0.41637    1.27017   1.00
C3       0.39040    0.43850    1.08066   1.00
C3       0.44385    0.43528    1.24859   1.00
C3       0.44096    0.38984    1.08180   1.00
C3       0.38545    0.39649    1.24915   1.00
H1       0.36995    0.45867    1.13692   1.00
H1       0.46723    0.44977    1.19185   1.00
H1       0.37073    0.45735    1.06468   1.00
H1       0.46670    0.45078    1.26395   1.00
H1       0.46069    0.37027    1.06679   1.00
H1       0.36293    0.38147    1.26543   1.00
C5       0.35354    0.37226    1.18739   1.00
H1       0.45992    0.37121    1.13901   1.00
H2       0.33099    0.36245    1.20854   1.00
H2       0.33838    0.39137    1.16603   1.00
N1       0.36985    0.33794    1.16792   1.00
C6       0.38972    0.30872    1.18512   1.00
C6       0.36742    0.32962    1.12960   1.00
C6       0.40043    0.28157    1.15743   1.00
C6       0.38626    0.29487    1.12211   1.00
H3       0.39631    0.30726    1.21599   1.00
H3       0.35322    0.34791    1.10809   1.00
H3       0.41672    0.25502    1.16241   1.00
H3       0.38934    0.28085    1.09403   1.00
C4       0.41510    0.64415    0.91500   1.00
C4       0.41490    0.68585    0.91500   1.00
C3       0.43923    0.62208    0.88994   1.00
C3       0.43458    0.70725    0.94418   1.00
C3       0.39062    0.62316    0.94068   1.00
C3a      0.39534    0.70763    0.88532   1.00
C2       0.41375    0.55983    0.91584   1.00
C2       0.41637    0.77017    0.91446   1.00
C3       0.43850    0.58066    0.89040   1.00
C3       0.43528    0.74859    0.94385   1.00
C3       0.38984    0.58180    0.94096   1.00
C3       0.39649    0.74915    0.88545   1.00
H1       0.45867    0.63692    0.86995   1.00
H1       0.44977    0.69185    0.96723   1.00
H1       0.45735    0.56468    0.87073   1.00
H1       0.45078    0.76395    0.96670   1.00
H1       0.37027    0.56679    0.96069   1.00
H1       0.38147    0.76543    0.86293   1.00
C5       0.37226    0.68739    0.85354   1.00
H1       0.37121    0.63901    0.95992   1.00
H2       0.36245    0.70854    0.83099   1.00
H2       0.39137    0.66603    0.83838   1.00
N1       0.33794    0.66792    0.86985   1.00
C6       0.30872    0.68512    0.88972   1.00
C6       0.32962    0.62960    0.86742   1.00
C6       0.28157    0.65743    0.90043   1.00
C6       0.29487    0.62211    0.88626   1.00
H3       0.30726    0.71599    0.89631   1.00
H3       0.34791    0.60809    0.85322   1.00
H3       0.25502    0.66241    0.91672   1.00
H3       0.28085    0.59403    0.88934   1.00
C4       0.18585    0.41500    0.91490   1.00
C4       0.14415    0.41500    0.91510   1.00
C3       0.20792    0.38994    0.89077   1.00
C3       0.12275    0.44418    0.89542   1.00
C3       0.20684    0.44068    0.93938   1.00
C3a      0.12237    0.38532    0.93466   1.00
C2       0.27017    0.41584    0.91625   1.00
C2       0.05983    0.41446    0.91363   1.00
C3       0.24934    0.39040    0.89150   1.00
C3       0.08141    0.44385    0.89472   1.00
C3       0.24820    0.44096    0.94016   1.00
C3       0.08085    0.38545    0.93351   1.00
H1       0.19308    0.36995    0.87133   1.00
H1       0.13815    0.46723    0.88023   1.00
H1       0.26532    0.37073    0.87265   1.00
H1       0.06605    0.46670    0.87922   1.00
H1       0.26321    0.46069    0.95973   1.00
H1       0.06457    0.36293    0.94853   1.00
C5       0.14261    0.35354    0.95774   1.00
H1       0.19099    0.45992    0.95879   1.00
H2       0.12146    0.33099    0.96755   1.00
H2       0.16397    0.33838    0.93863   1.00
N1       0.16208    0.36985    0.99206   1.00
C6       0.14488    0.38972    1.02128   1.00
C6       0.20040    0.36742    1.00038   1.00
C6       0.17257    0.40043    1.04843   1.00
C6       0.20789    0.38626    1.03513   1.00
H3       0.11401    0.39631    1.02274   1.00
H3       0.22191    0.35322    0.98209   1.00
H3       0.16759    0.41672    1.07498   1.00
H3       0.23597    0.38934    1.04915   1.00
C4       0.64415    0.41500    0.91510   1.00
C4       0.68585    0.41500    0.91490   1.00
C3       0.62208    0.38994    0.93923   1.00
C3       0.70725    0.44418    0.93458   1.00
C3       0.62316    0.44068    0.89062   1.00
C3a      0.70763    0.38532    0.89534   1.00
C2       0.55983    0.41584    0.91375   1.00
C2       0.77017    0.41446    0.91637   1.00
C3       0.58066    0.39040    0.93850   1.00
C3       0.74859    0.44385    0.93528   1.00
C3       0.58180    0.44096    0.88984   1.00
C3       0.74915    0.38545    0.89649   1.00
H1       0.63692    0.36995    0.95867   1.00
H1       0.69185    0.46723    0.94977   1.00
H1       0.56468    0.37073    0.95735   1.00
H1       0.76395    0.46670    0.95078   1.00
H1       0.56679    0.46069    0.87027   1.00
H1       0.76543    0.36293    0.88147   1.00
C5       0.68739    0.35354    0.87226   1.00
H1       0.63901    0.45992    0.87121   1.00
H2       0.70854    0.33099    0.86245   1.00
H2       0.66603    0.33838    0.89137   1.00
N1       0.66792    0.36985    0.83794   1.00
C6       0.68512    0.38972    0.80872   1.00
C6       0.62960    0.36742    0.82962   1.00
C6       0.65743    0.40043    0.78157   1.00
C6       0.62211    0.38626    0.79487   1.00
H3       0.71599    0.39631    0.80726   1.00
H3       0.60809    0.35322    0.84791   1.00
H3       0.66241    0.41672    0.75502   1.00
H3       0.59403    0.38934    0.78085   1.00
C4       0.41490    0.18585    0.91500   1.00
C4       0.41510    0.14415    0.91500   1.00
C3       0.39077    0.20792    0.88994   1.00
C3       0.39542    0.12275    0.94418   1.00
C3       0.43938    0.20684    0.94068   1.00
C3a      0.43466    0.12237    0.88532   1.00
C2       0.41625    0.27017    0.91584   1.00
C2       0.41363    0.05983    0.91446   1.00
C3       0.39150    0.24934    0.89040   1.00
C3       0.39472    0.08141    0.94385   1.00
C3       0.44016    0.24820    0.94096   1.00
C3       0.43351    0.08085    0.88545   1.00
H1       0.37133    0.19308    0.86995   1.00
H1       0.38023    0.13815    0.96723   1.00
H1       0.37265    0.26532    0.87073   1.00
H1       0.37922    0.06605    0.96670   1.00
H1       0.45973    0.26321    0.96069   1.00
H1       0.44853    0.06457    0.86293   1.00
C5       0.45774    0.14261    0.85354   1.00
H1       0.45879    0.19099    0.95992   1.00
H2       0.46755    0.12146    0.83099   1.00
H2       0.43863    0.16397    0.83838   1.00
N1       0.49206    0.16208    0.86985   1.00
C6       0.52128    0.14488    0.88972   1.00
C6       0.50038    0.20040    0.86742   1.00
C6       0.54843    0.17257    0.90043   1.00
C6       0.53513    0.20789    0.88626   1.00
H3       0.52274    0.11401    0.89631   1.00
H3       0.48209    0.22191    0.85322   1.00
H3       0.57498    0.16759    0.91672   1.00
H3       0.54915    0.23597    0.88934   1.00
C4       0.41500    0.41490    0.68585   1.00
C4       0.41500    0.41510    0.64415   1.00
C3       0.38994    0.39077    0.70792   1.00
C3       0.44418    0.39542    0.62275   1.00
C3       0.44068    0.43938    0.70684   1.00
C3a      0.38532    0.43466    0.62237   1.00
C2       0.41584    0.41625    0.77017   1.00
C2       0.41446    0.41363    0.55983   1.00
C3       0.39040    0.39150    0.74934   1.00
C3       0.44385    0.39472    0.58141   1.00
C3       0.44096    0.44016    0.74820   1.00
C3       0.38545    0.43351    0.58085   1.00
H1       0.36995    0.37133    0.69308   1.00
H1       0.46723    0.38023    0.63815   1.00
H1       0.37073    0.37265    0.76532   1.00
H1       0.46670    0.37922    0.56605   1.00
H1       0.46069    0.45973    0.76321   1.00
H1       0.36293    0.44853    0.56457   1.00
C5       0.35354    0.45774    0.64261   1.00
H1       0.45992    0.45879    0.69099   1.00
H2       0.33099    0.46755    0.62146   1.00
H2       0.33838    0.43863    0.66397   1.00
N1       0.36985    0.49206    0.66208   1.00
C6       0.38972    0.52128    0.64488   1.00
C6       0.36742    0.50038    0.70040   1.00
C6       0.40043    0.54843    0.67257   1.00
C6       0.38626    0.53513    0.70789   1.00
H3       0.39631    0.52274    0.61401   1.00
H3       0.35322    0.48209    0.72191   1.00
H3       0.41672    0.57498    0.66759   1.00
H3       0.38934    0.54915    0.73597   1.00
C4       0.41500    0.91510    0.64415   1.00
C4       0.41500    0.91490    0.68585   1.00
C3       0.38994    0.93923    0.62208   1.00
C3       0.44418    0.93458    0.70725   1.00
C3       0.44068    0.89062    0.62316   1.00
C3a      0.38532    0.89534    0.70763   1.00
C2       0.41584    0.91375    0.55983   1.00
C2       0.41446    0.91637    0.77017   1.00
C3       0.39040    0.93850    0.58066   1.00
C3       0.44385    0.93528    0.74859   1.00
C3       0.44096    0.88984    0.58180   1.00
C3       0.38545    0.89649    0.74915   1.00
H1       0.36995    0.95867    0.63692   1.00
H1       0.46723    0.94977    0.69185   1.00
H1       0.37073    0.95735    0.56468   1.00
H1       0.46670    0.95078    0.76395   1.00
H1       0.46069    0.87027    0.56679   1.00
H1       0.36293    0.88147    0.76543   1.00
C5       0.35354    0.87226    0.68739   1.00
H1       0.45992    0.87121    0.63901   1.00
H2       0.33099    0.86245    0.70854   1.00
H2       0.33838    0.89137    0.66603   1.00
N1       0.36985    0.83794    0.66792   1.00
C6       0.38972    0.80872    0.68512   1.00
C6       0.36742    0.82962    0.62960   1.00
C6       0.40043    0.78157    0.65743   1.00
C6       0.38626    0.79487    0.62211   1.00
H3       0.39631    0.80726    0.71599   1.00
H3       0.35322    0.84791    0.60809   1.00
H3       0.41672    0.75502    0.66241   1.00
H3       0.38934    0.78085    0.59403   1.00
C4       0.41510    1.14415    0.41500   1.00
C4       0.41490    1.18585    0.41500   1.00
C3       0.43923    1.12208    0.38994   1.00
C3       0.43458    1.20725    0.44418   1.00
C3       0.39062    1.12316    0.44068   1.00
C3a      0.39534    1.20763    0.38532   1.00
C2       0.41375    1.05983    0.41584   1.00
C2       0.41637    1.27017    0.41446   1.00
C3       0.43850    1.08066    0.39040   1.00
C3       0.43528    1.24859    0.44385   1.00
C3       0.38984    1.08180    0.44096   1.00
C3       0.39649    1.24915    0.38545   1.00
H1       0.45867    1.13692    0.36995   1.00
H1       0.44977    1.19185    0.46723   1.00
H1       0.45735    1.06468    0.37073   1.00
H1       0.45078    1.26395    0.46670   1.00
H1       0.37027    1.06679    0.46069   1.00
H1       0.38147    1.26543    0.36293   1.00
C5       0.37226    1.18739    0.35354   1.00
H1       0.37121    1.13901    0.45992   1.00
H2       0.36245    1.20854    0.33099   1.00
H2       0.39137    1.16603    0.33838   1.00
N1       0.33794    1.16792    0.36985   1.00
C6       0.30872    1.18512    0.38972   1.00
C6       0.32962    1.12960    0.36742   1.00
C6       0.28157    1.15743    0.40043   1.00
C6       0.29487    1.12211    0.38626   1.00
H3       0.30726    1.21599    0.39631   1.00
H3       0.34791    1.10809    0.35322   1.00
H3       0.25502    1.16241    0.41672   1.00
H3       0.28085    1.09403    0.38934   1.00
C4       0.18585    0.91500    0.41490   1.00
C4       0.14415    0.91500    0.41510   1.00
C3       0.20792    0.88994    0.39077   1.00
C3       0.12275    0.94418    0.39542   1.00
C3       0.20684    0.94068    0.43938   1.00
C3a      0.12237    0.88532    0.43466   1.00
C2       0.27017    0.91584    0.41625   1.00
C2       0.05983    0.91446    0.41363   1.00
C3       0.24934    0.89040    0.39150   1.00
C3       0.08141    0.94385    0.39472   1.00
C3       0.24820    0.94096    0.44016   1.00
C3       0.08085    0.88545    0.43351   1.00
H1       0.19308    0.86995    0.37133   1.00
H1       0.13815    0.96723    0.38023   1.00
H1       0.26532    0.87073    0.37265   1.00
H1       0.06605    0.96670    0.37922   1.00
H1       0.26321    0.96069    0.45973   1.00
H1       0.06457    0.86293    0.44853   1.00
C5       0.14261    0.85354    0.45774   1.00
H1       0.19099    0.95992    0.45879   1.00
H2       0.12146    0.83099    0.46755   1.00
H2       0.16397    0.83838    0.43863   1.00
N1       0.16208    0.86985    0.49206   1.00
C6       0.14488    0.88972    0.52128   1.00
C6       0.20040    0.86742    0.50038   1.00
C6       0.17257    0.90043    0.54843   1.00
C6       0.20789    0.88626    0.53513   1.00
H3       0.11401    0.89631    0.52274   1.00
H3       0.22191    0.85322    0.48209   1.00
H3       0.16759    0.91672    0.57498   1.00
H3       0.23597    0.88934    0.54915   1.00
C4       0.64415    0.91500    0.41510   1.00
C4       0.68585    0.91500    0.41490   1.00
C3       0.62208    0.88994    0.43923   1.00
C3       0.70725    0.94418    0.43458   1.00
C3       0.62316    0.94068    0.39062   1.00
C3a      0.70763    0.88532    0.39534   1.00
C2       0.55983    0.91584    0.41375   1.00
C2       0.77017    0.91446    0.41637   1.00
C3       0.58066    0.89040    0.43850   1.00
C3       0.74859    0.94385    0.43528   1.00
C3       0.58180    0.94096    0.38984   1.00
C3       0.74915    0.88545    0.39649   1.00
H1       0.63692    0.86995    0.45867   1.00
H1       0.69185    0.96723    0.44977   1.00
H1       0.56468    0.87073    0.45735   1.00
H1       0.76395    0.96670    0.45078   1.00
H1       0.56679    0.96069    0.37027   1.00
H1       0.76543    0.86293    0.38147   1.00
C5       0.68739    0.85354    0.37226   1.00
H1       0.63901    0.95992    0.37121   1.00
H2       0.70854    0.83099    0.36245   1.00
H2       0.66603    0.83838    0.39137   1.00
N1       0.66792    0.86985    0.33794   1.00
C6       0.68512    0.88972    0.30872   1.00
C6       0.62960    0.86742    0.32962   1.00
C6       0.65743    0.90043    0.28157   1.00
C6       0.62211    0.88626    0.29487   1.00
H3       0.71599    0.89631    0.30726   1.00
H3       0.60809    0.85322    0.34791   1.00
H3       0.66241    0.91672    0.25502   1.00
H3       0.59403    0.88934    0.28085   1.00
C4       0.41490    0.68585    0.41500   1.00
C4       0.41510    0.64415    0.41500   1.00
C3       0.39077    0.70792    0.38994   1.00
C3       0.39542    0.62275    0.44418   1.00
C3       0.43938    0.70684    0.44068   1.00
C3a      0.43466    0.62237    0.38532   1.00
C2       0.41625    0.77017    0.41584   1.00
C2       0.41363    0.55983    0.41446   1.00
C3       0.39150    0.74934    0.39040   1.00
C3       0.39472    0.58141    0.44385   1.00
C3       0.44016    0.74820    0.44096   1.00
C3       0.43351    0.58085    0.38545   1.00
H1       0.37133    0.69308    0.36995   1.00
H1       0.38023    0.63815    0.46723   1.00
H1       0.37265    0.76532    0.37073   1.00
H1       0.37922    0.56605    0.46670   1.00
H1       0.45973    0.76321    0.46069   1.00
H1       0.44853    0.56457    0.36293   1.00
C5       0.45774    0.64261    0.35354   1.00
H1       0.45879    0.69099    0.45992   1.00
H2       0.46755    0.62146    0.33099   1.00
H2       0.43863    0.66397    0.33838   1.00
N1       0.49206    0.66208    0.36985   1.00
C6       0.52128    0.64488    0.38972   1.00
C6       0.50038    0.70040    0.36742   1.00
C6       0.54843    0.67257    0.40043   1.00
C6       0.53513    0.70789    0.38626   1.00
H3       0.52274    0.61401    0.39631   1.00
H3       0.48209    0.72191    0.35322   1.00
H3       0.57498    0.66759    0.41672   1.00
H3       0.54915    0.73597    0.38934   1.00
C4       0.41500    0.91490    0.18585   1.00
C4       0.41500    0.91510    0.14415   1.00
C3       0.38994    0.89077    0.20792   1.00
C3       0.44418    0.89542    0.12275   1.00
C3       0.44068    0.93938    0.20684   1.00
C3a      0.38532    0.93466    0.12237   1.00
C2       0.41584    0.91625    0.27017   1.00
C2       0.41446    0.91363    0.05983   1.00
C3       0.39040    0.89150    0.24934   1.00
C3       0.44385    0.89472    0.08141   1.00
C3       0.44096    0.94016    0.24820   1.00
C3       0.38545    0.93351    0.08085   1.00
H1       0.36995    0.87133    0.19308   1.00
H1       0.46723    0.88023    0.13815   1.00
H1       0.37073    0.87265    0.26532   1.00
H1       0.46670    0.87922    0.06605   1.00
H1       0.46069    0.95973    0.26321   1.00
H1       0.36293    0.94853    0.06457   1.00
C5       0.35354    0.95774    0.14261   1.00
H1       0.45992    0.95879    0.19099   1.00
H2       0.33099    0.96755    0.12146   1.00
H2       0.33838    0.93863    0.16397   1.00
N1       0.36985    0.99206    0.16208   1.00
C6       0.38972    1.02128    0.14488   1.00
C6       0.36742    1.00038    0.20040   1.00
C6       0.40043    1.04843    0.17257   1.00
C6       0.38626    1.03513    0.20789   1.00
H3       0.39631    1.02274    0.11401   1.00
H3       0.35322    0.98209    0.22191   1.00
H3       0.41672    1.07498    0.16759   1.00
H3       0.38934    1.04915    0.23597   1.00
C4       0.91500    0.41510    0.64415   1.00
C4       0.91500    0.41490    0.68585   1.00
C3       0.88994    0.43923    0.62208   1.00
C3       0.94418    0.43458    0.70725   1.00
C3       0.94068    0.39062    0.62316   1.00
C3a      0.88532    0.39534    0.70763   1.00
C2       0.91584    0.41375    0.55983   1.00
C2       0.91446    0.41637    0.77017   1.00
C3       0.89040    0.43850    0.58066   1.00
C3       0.94385    0.43528    0.74859   1.00
C3       0.94096    0.38984    0.58180   1.00
C3       0.88545    0.39649    0.74915   1.00
H1       0.86995    0.45867    0.63692   1.00
H1       0.96723    0.44977    0.69185   1.00
H1       0.87073    0.45735    0.56468   1.00
H1       0.96670    0.45078    0.76395   1.00
H1       0.96069    0.37027    0.56679   1.00
H1       0.86293    0.38147    0.76543   1.00
C5       0.85354    0.37226    0.68739   1.00
H1       0.95992    0.37121    0.63901   1.00
H2       0.83099    0.36245    0.70854   1.00
H2       0.83838    0.39137    0.66603   1.00
N1       0.86985    0.33794    0.66792   1.00
C6       0.88972    0.30872    0.68512   1.00
C6       0.86742    0.32962    0.62960   1.00
C6       0.90043    0.28157    0.65743   1.00
C6       0.88626    0.29487    0.62211   1.00
H3       0.89631    0.30726    0.71599   1.00
H3       0.85322    0.34791    0.60809   1.00
H3       0.91672    0.25502    0.66241   1.00
H3       0.88934    0.28085    0.59403   1.00
C4       0.91510    0.64415    0.41500   1.00
C4       0.91490    0.68585    0.41500   1.00
C3       0.93923    0.62208    0.38994   1.00
C3       0.93458    0.70725    0.44418   1.00
C3       0.89062    0.62316    0.44068   1.00
C3a      0.89534    0.70763    0.38532   1.00
C2       0.91375    0.55983    0.41584   1.00
C2       0.91637    0.77017    0.41446   1.00
C3       0.93850    0.58066    0.39040   1.00
C3       0.93528    0.74859    0.44385   1.00
C3       0.88984    0.58180    0.44096   1.00
C3       0.89649    0.74915    0.38545   1.00
H1       0.95867    0.63692    0.36995   1.00
H1       0.94977    0.69185    0.46723   1.00
H1       0.95735    0.56468    0.37073   1.00
H1       0.95078    0.76395    0.46670   1.00
H1       0.87027    0.56679    0.46069   1.00
H1       0.88147    0.76543    0.36293   1.00
C5       0.87226    0.68739    0.35354   1.00
H1       0.87121    0.63901    0.45992   1.00
H2       0.86245    0.70854    0.33099   1.00
H2       0.89137    0.66603    0.33838   1.00
N1       0.83794    0.66792    0.36985   1.00
C6       0.80872    0.68512    0.38972   1.00
C6       0.82962    0.62960    0.36742   1.00
C6       0.78157    0.65743    0.40043   1.00
C6       0.79487    0.62211    0.38626   1.00
H3       0.80726    0.71599    0.39631   1.00
H3       0.84791    0.60809    0.35322   1.00
H3       0.75502    0.66241    0.41672   1.00
H3       0.78085    0.59403    0.38934   1.00
C4       0.68585    0.41500    0.41490   1.00
C4       0.64415    0.41500    0.41510   1.00
C3       0.70792    0.38994    0.39077   1.00
C3       0.62275    0.44418    0.39542   1.00
C3       0.70684    0.44068    0.43938   1.00
C3a      0.62237    0.38532    0.43466   1.00
C2       0.77017    0.41584    0.41625   1.00
C2       0.55983    0.41446    0.41363   1.00
C3       0.74934    0.39040    0.39150   1.00
C3       0.58141    0.44385    0.39472   1.00
C3       0.74820    0.44096    0.44016   1.00
C3       0.58085    0.38545    0.43351   1.00
H1       0.69308    0.36995    0.37133   1.00
H1       0.63815    0.46723    0.38023   1.00
H1       0.76532    0.37073    0.37265   1.00
H1       0.56605    0.46670    0.37922   1.00
H1       0.76321    0.46069    0.45973   1.00
H1       0.56457    0.36293    0.44853   1.00
C5       0.64261    0.35354    0.45774   1.00
H1       0.69099    0.45992    0.45879   1.00
H2       0.62146    0.33099    0.46755   1.00
H2       0.66397    0.33838    0.43863   1.00
N1       0.66208    0.36985    0.49206   1.00
C6       0.64488    0.38972    0.52128   1.00
C6       0.70040    0.36742    0.50038   1.00
C6       0.67257    0.40043    0.54843   1.00
C6       0.70789    0.38626    0.53513   1.00
H3       0.61401    0.39631    0.52274   1.00
H3       0.72191    0.35322    0.48209   1.00
H3       0.66759    0.41672    0.57498   1.00
H3       0.73597    0.38934    0.54915   1.00
C4       1.14415    0.41500    0.41510   1.00
C4       1.18585    0.41500    0.41490   1.00
C3       1.12208    0.38994    0.43923   1.00
C3       1.20725    0.44418    0.43458   1.00
C3       1.12316    0.44068    0.39062   1.00
C3a      1.20763    0.38532    0.39534   1.00
C2       1.05983    0.41584    0.41375   1.00
C2       1.27017    0.41446    0.41637   1.00
C3       1.08066    0.39040    0.43850   1.00
C3       1.24859    0.44385    0.43528   1.00
C3       1.08180    0.44096    0.38984   1.00
C3       1.24915    0.38545    0.39649   1.00
H1       1.13692    0.36995    0.45867   1.00
H1       1.19185    0.46723    0.44977   1.00
H1       1.06468    0.37073    0.45735   1.00
H1       1.26395    0.46670    0.45078   1.00
H1       1.06679    0.46069    0.37027   1.00
H1       1.26543    0.36293    0.38147   1.00
C5       1.18739    0.35354    0.37226   1.00
H1       1.13901    0.45992    0.37121   1.00
H2       1.20854    0.33099    0.36245   1.00
H2       1.16603    0.33838    0.39137   1.00
N1       1.16792    0.36985    0.33794   1.00
C6       1.18512    0.38972    0.30872   1.00
C6       1.12960    0.36742    0.32962   1.00
C6       1.15743    0.40043    0.28157   1.00
C6       1.12211    0.38626    0.29487   1.00
H3       1.21599    0.39631    0.30726   1.00
H3       1.10809    0.35322    0.34791   1.00
H3       1.16241    0.41672    0.25502   1.00
H3       1.09403    0.38934    0.28085   1.00
C4       0.91490    0.18585    0.41500   1.00
C4       0.91510    0.14415    0.41500   1.00
C3       0.89077    0.20792    0.38994   1.00
C3       0.89542    0.12275    0.44418   1.00
C3       0.93938    0.20684    0.44068   1.00
C3a      0.93466    0.12237    0.38532   1.00
C2       0.91625    0.27017    0.41584   1.00
C2       0.91363    0.05983    0.41446   1.00
C3       0.89150    0.24934    0.39040   1.00
C3       0.89472    0.08141    0.44385   1.00
C3       0.94016    0.24820    0.44096   1.00
C3       0.93351    0.08085    0.38545   1.00
H1       0.87133    0.19308    0.36995   1.00
H1       0.88023    0.13815    0.46723   1.00
H1       0.87265    0.26532    0.37073   1.00
H1       0.87922    0.06605    0.46670   1.00
H1       0.95973    0.26321    0.46069   1.00
H1       0.94853    0.06457    0.36293   1.00
C5       0.95774    0.14261    0.35354   1.00
H1       0.95879    0.19099    0.45992   1.00
H2       0.96755    0.12146    0.33099   1.00
H2       0.93863    0.16397    0.33838   1.00
N1       0.99206    0.16208    0.36985   1.00
C6       1.02128    0.14488    0.38972   1.00
C6       1.00038    0.20040    0.36742   1.00
C6       1.04843    0.17257    0.40043   1.00
C6       1.03513    0.20789    0.38626   1.00
H3       1.02274    0.11401    0.39631   1.00
H3       0.98209    0.22191    0.35322   1.00
H3       1.07498    0.16759    0.41672   1.00
H3       1.04915    0.23597    0.38934   1.00
C4       0.91500    0.41490    0.18585   1.00
C4       0.91500    0.41510    0.14415   1.00
C3       0.88994    0.39077    0.20792   1.00
C3       0.94418    0.39542    0.12275   1.00
C3       0.94068    0.43938    0.20684   1.00
C3a      0.88532    0.43466    0.12237   1.00
C2       0.91584    0.41625    0.27017   1.00
C2       0.91446    0.41363    0.05983   1.00
C3       0.89040    0.39150    0.24934   1.00
C3       0.94385    0.39472    0.08141   1.00
C3       0.94096    0.44016    0.24820   1.00
C3       0.88545    0.43351    0.08085   1.00
H1       0.86995    0.37133    0.19308   1.00
H1       0.96723    0.38023    0.13815   1.00
H1       0.87073    0.37265    0.26532   1.00
H1       0.96670    0.37922    0.06605   1.00
H1       0.96069    0.45973    0.26321   1.00
H1       0.86293    0.44853    0.06457   1.00
C5       0.85354    0.45774    0.14261   1.00
H1       0.95992    0.45879    0.19099   1.00
H2       0.83099    0.46755    0.12146   1.00
H2       0.83838    0.43863    0.16397   1.00
N1       0.86985    0.49206    0.16208   1.00
C6       0.88972    0.52128    0.14488   1.00
C6       0.86742    0.50038    0.20040   1.00
C6       0.90043    0.54843    0.17257   1.00
C6       0.88626    0.53513    0.20789   1.00
H3       0.89631    0.52274    0.11401   1.00
H3       0.85322    0.48209    0.22191   1.00
H3       0.91672    0.57498    0.16759   1.00
H3       0.88934    0.54915    0.23597   1.00
