data_IRMOF10_SG202_interpen_Ligand12cp_label_m.

_audit_creation_method             'generated by an auxiliary program of Tobunporous'

_symmetry_space_group_name_H-M     'P 1'
_symmetry_Int_Tables_number        1
_symmetry_cell_setting             triclinic

_cell_length_a                    34.2800
_cell_length_b                    34.2800
_cell_length_c                    34.2800
_cell_angle_alpha                 90.0000
_cell_angle_beta                  90.0000
_cell_angle_gamma                 90.0000

loop_
_atom_site_label
_atom_site_fract_x
_atom_site_fract_y
_atom_site_fract_z
_atom_site_occupancy
O1       0.75000    0.75000    0.75000   1.00
Zn1      0.71720    0.78280    0.78280   1.00
Zn1      0.78280    0.71720    0.78280   1.00
Zn1      0.78280    0.78280    0.71720   1.00
Zn1      0.71720    0.71720    0.71720   1.00
O2       0.72650    0.77350    0.83820   1.00
O2       0.72650    0.83820    0.77350   1.00
O2       0.66180    0.77350    0.77350   1.00
O2       0.77350    0.72650    0.83820   1.00
O2       0.83820    0.72650    0.77350   1.00
O2       0.77350    0.66180    0.77350   1.00
O2       0.77350    0.83820    0.72650   1.00
O2       0.83820    0.77350    0.72650   1.00
O2       0.77350    0.77350    0.66180   1.00
O2       0.66180    0.72650    0.72650   1.00
O2       0.72650    0.66180    0.72650   1.00
O2       0.72650    0.72650    0.66180   1.00
C1       0.75000    0.75000    0.85520   1.00
C1       0.75000    0.85520    0.75000   1.00
C1       0.64480    0.75000    0.75000   1.00
C1       0.85520    0.75000    0.75000   1.00
C1       0.75000    0.64480    0.75000   1.00
C1       0.75000    0.75000    0.64480   1.00
O1       0.25000    0.25000    0.75000   1.00
Zn1      0.21720    0.28280    0.78280   1.00
Zn1      0.28280    0.21720    0.78280   1.00
Zn1      0.28280    0.28280    0.71720   1.00
Zn1      0.21720    0.21720    0.71720   1.00
O2       0.22650    0.27350    0.83820   1.00
O2       0.22650    0.33820    0.77350   1.00
O2       0.16180    0.27350    0.77350   1.00
O2       0.27350    0.22650    0.83820   1.00
O2       0.33820    0.22650    0.77350   1.00
O2       0.27350    0.16180    0.77350   1.00
O2       0.27350    0.33820    0.72650   1.00
O2       0.33820    0.27350    0.72650   1.00
O2       0.27350    0.27350    0.66180   1.00
O2       0.16180    0.22650    0.72650   1.00
O2       0.22650    0.16180    0.72650   1.00
O2       0.22650    0.22650    0.66180   1.00
C1       0.25000    0.25000    0.85520   1.00
C1       0.25000    0.35520    0.75000   1.00
C1       0.14480    0.25000    0.75000   1.00
C1       0.35520    0.25000    0.75000   1.00
C1       0.25000    0.14480    0.75000   1.00
C1       0.25000    0.25000    0.64480   1.00
O1       0.25000    0.75000    0.25000   1.00
Zn1      0.21720    0.78280    0.28280   1.00
Zn1      0.28280    0.71720    0.28280   1.00
Zn1      0.28280    0.78280    0.21720   1.00
Zn1      0.21720    0.71720    0.21720   1.00
O2       0.22650    0.77350    0.33820   1.00
O2       0.22650    0.83820    0.27350   1.00
O2       0.16180    0.77350    0.27350   1.00
O2       0.27350    0.72650    0.33820   1.00
O2       0.33820    0.72650    0.27350   1.00
O2       0.27350    0.66180    0.27350   1.00
O2       0.27350    0.83820    0.22650   1.00
O2       0.33820    0.77350    0.22650   1.00
O2       0.27350    0.77350    0.16180   1.00
O2       0.16180    0.72650    0.22650   1.00
O2       0.22650    0.66180    0.22650   1.00
O2       0.22650    0.72650    0.16180   1.00
C1       0.25000    0.75000    0.35520   1.00
C1       0.25000    0.85520    0.25000   1.00
C1       0.14480    0.75000    0.25000   1.00
C1       0.35520    0.75000    0.25000   1.00
C1       0.25000    0.64480    0.25000   1.00
C1       0.25000    0.75000    0.14480   1.00
O1       0.75000    0.25000    0.25000   1.00
Zn1      0.71720    0.28280    0.28280   1.00
Zn1      0.78280    0.21720    0.28280   1.00
Zn1      0.78280    0.28280    0.21720   1.00
Zn1      0.71720    0.21720    0.21720   1.00
O2       0.72650    0.27350    0.33820   1.00
O2       0.72650    0.33820    0.27350   1.00
O2       0.66180    0.27350    0.27350   1.00
O2       0.77350    0.22650    0.33820   1.00
O2       0.83820    0.22650    0.27350   1.00
O2       0.77350    0.16180    0.27350   1.00
O2       0.77350    0.33820    0.22650   1.00
O2       0.83820    0.27350    0.22650   1.00
O2       0.77350    0.27350    0.16180   1.00
O2       0.66180    0.22650    0.22650   1.00
O2       0.72650    0.16180    0.22650   1.00
O2       0.72650    0.22650    0.16180   1.00
C1       0.75000    0.25000    0.35520   1.00
C1       0.75000    0.35520    0.25000   1.00
C1       0.64480    0.25000    0.25000   1.00
C1       0.85520    0.25000    0.25000   1.00
C1       0.75000    0.14480    0.25000   1.00
C1       0.75000    0.25000    0.14480   1.00
O1       0.25000    0.25000    0.25000   1.00
Zn1      0.28280    0.21720    0.21720   1.00
Zn1      0.21720    0.28280    0.21720   1.00
Zn1      0.21720    0.21720    0.28280   1.00
Zn1      0.28280    0.28280    0.28280   1.00
O2       0.27350    0.22650    0.16180   1.00
O2       0.27350    0.16180    0.22650   1.00
O2       0.33820    0.22650    0.22650   1.00
O2       0.22650    0.27350    0.16180   1.00
O2       0.16180    0.27350    0.22650   1.00
O2       0.22650    0.33820    0.22650   1.00
O2       0.22650    0.16180    0.27350   1.00
O2       0.16180    0.22650    0.27350   1.00
O2       0.22650    0.22650    0.33820   1.00
O2       0.33820    0.27350    0.27350   1.00
O2       0.27350    0.33820    0.27350   1.00
O2       0.27350    0.27350    0.33820   1.00
C1       0.25000    0.25000    0.14480   1.00
C1       0.25000    0.14480    0.25000   1.00
C1       0.35520    0.25000    0.25000   1.00
C1       0.14480    0.25000    0.25000   1.00
C1       0.25000    0.35520    0.25000   1.00
C1       0.25000    0.25000    0.35520   1.00
O1       0.75000    0.75000    0.25000   1.00
Zn1      0.78280    0.71720    0.21720   1.00
Zn1      0.71720    0.78280    0.21720   1.00
Zn1      0.71720    0.71720    0.28280   1.00
Zn1      0.78280    0.78280    0.28280   1.00
O2       0.77350    0.72650    0.16180   1.00
O2       0.77350    0.66180    0.22650   1.00
O2       0.83820    0.72650    0.22650   1.00
O2       0.72650    0.77350    0.16180   1.00
O2       0.66180    0.77350    0.22650   1.00
O2       0.72650    0.83820    0.22650   1.00
O2       0.72650    0.66180    0.27350   1.00
O2       0.66180    0.72650    0.27350   1.00
O2       0.72650    0.72650    0.33820   1.00
O2       0.83820    0.77350    0.27350   1.00
O2       0.77350    0.83820    0.27350   1.00
O2       0.77350    0.77350    0.33820   1.00
C1       0.75000    0.75000    0.14480   1.00
C1       0.75000    0.64480    0.25000   1.00
C1       0.85520    0.75000    0.25000   1.00
C1       0.64480    0.75000    0.25000   1.00
C1       0.75000    0.85520    0.25000   1.00
C1       0.75000    0.75000    0.35520   1.00
O1       0.75000    0.25000    0.75000   1.00
Zn1      0.78280    0.21720    0.71720   1.00
Zn1      0.71720    0.28280    0.71720   1.00
Zn1      0.71720    0.21720    0.78280   1.00
Zn1      0.78280    0.28280    0.78280   1.00
O2       0.77350    0.22650    0.66180   1.00
O2       0.77350    0.16180    0.72650   1.00
O2       0.83820    0.22650    0.72650   1.00
O2       0.72650    0.27350    0.66180   1.00
O2       0.66180    0.27350    0.72650   1.00
O2       0.72650    0.33820    0.72650   1.00
O2       0.72650    0.16180    0.77350   1.00
O2       0.66180    0.22650    0.77350   1.00
O2       0.72650    0.22650    0.83820   1.00
O2       0.83820    0.27350    0.77350   1.00
O2       0.77350    0.33820    0.77350   1.00
O2       0.77350    0.27350    0.83820   1.00
C1       0.75000    0.25000    0.64480   1.00
C1       0.75000    0.14480    0.75000   1.00
C1       0.85520    0.25000    0.75000   1.00
C1       0.64480    0.25000    0.75000   1.00
C1       0.75000    0.35520    0.75000   1.00
C1       0.75000    0.25000    0.85520   1.00
O1       0.25000    0.75000    0.75000   1.00
Zn1      0.28280    0.71720    0.71720   1.00
Zn1      0.21720    0.78280    0.71720   1.00
Zn1      0.21720    0.71720    0.78280   1.00
Zn1      0.28280    0.78280    0.78280   1.00
O2       0.27350    0.72650    0.66180   1.00
O2       0.27350    0.66180    0.72650   1.00
O2       0.33820    0.72650    0.72650   1.00
O2       0.22650    0.77350    0.66180   1.00
O2       0.16180    0.77350    0.72650   1.00
O2       0.22650    0.83820    0.72650   1.00
O2       0.22650    0.66180    0.77350   1.00
O2       0.16180    0.72650    0.77350   1.00
O2       0.22650    0.72650    0.83820   1.00
O2       0.33820    0.77350    0.77350   1.00
O2       0.27350    0.83820    0.77350   1.00
O2       0.27350    0.77350    0.83820   1.00
C1       0.25000    0.75000    0.64480   1.00
C1       0.25000    0.64480    0.75000   1.00
C1       0.35520    0.75000    0.75000   1.00
C1       0.14480    0.75000    0.75000   1.00
C1       0.25000    0.85520    0.75000   1.00
C1       0.25000    0.75000    0.85520   1.00
O1       0.91500    0.91500    0.91500   1.00
Zn1      0.88220    0.94780    0.94780   1.00
Zn1      0.94780    0.88220    0.94780   1.00
Zn1      0.94780    0.94780    0.88220   1.00
Zn1      0.88220    0.88220    0.88220   1.00
O2       0.89150    0.93850    1.00320   1.00
O2       0.89150    1.00320    0.93850   1.00
O2       0.82680    0.93850    0.93850   1.00
O2       0.93850    0.89150    1.00320   1.00
O2       1.00320    0.89150    0.93850   1.00
O2       0.93850    0.82680    0.93850   1.00
O2       0.93850    1.00320    0.89150   1.00
O2       1.00320    0.93850    0.89150   1.00
O2       0.93850    0.93850    0.82680   1.00
O2       0.82680    0.89150    0.89150   1.00
O2       0.89150    0.82680    0.89150   1.00
O2       0.89150    0.89150    0.82680   1.00
C1       0.91500    0.91500    1.02020   1.00
C1       0.91500    1.02020    0.91500   1.00
C1       0.80980    0.91500    0.91500   1.00
C1       1.02020    0.91500    0.91500   1.00
C1       0.91500    0.80980    0.91500   1.00
C1       0.91500    0.91500    0.80980   1.00
O1       0.41500    0.41500    0.91500   1.00
Zn1      0.38220    0.44780    0.94780   1.00
Zn1      0.44780    0.38220    0.94780   1.00
Zn1      0.44780    0.44780    0.88220   1.00
Zn1      0.38220    0.38220    0.88220   1.00
O2       0.39150    0.43850    1.00320   1.00
O2       0.39150    0.50320    0.93850   1.00
O2       0.32680    0.43850    0.93850   1.00
O2       0.43850    0.39150    1.00320   1.00
O2       0.50320    0.39150    0.93850   1.00
O2       0.43850    0.32680    0.93850   1.00
O2       0.43850    0.50320    0.89150   1.00
O2       0.50320    0.43850    0.89150   1.00
O2       0.43850    0.43850    0.82680   1.00
O2       0.32680    0.39150    0.89150   1.00
O2       0.39150    0.32680    0.89150   1.00
O2       0.39150    0.39150    0.82680   1.00
C1       0.41500    0.41500    1.02020   1.00
C1       0.41500    0.52020    0.91500   1.00
C1       0.30980    0.41500    0.91500   1.00
C1       0.52020    0.41500    0.91500   1.00
C1       0.41500    0.30980    0.91500   1.00
C1       0.41500    0.41500    0.80980   1.00
O1       0.41500    0.91500    0.41500   1.00
Zn1      0.38220    0.94780    0.44780   1.00
Zn1      0.44780    0.88220    0.44780   1.00
Zn1      0.44780    0.94780    0.38220   1.00
Zn1      0.38220    0.88220    0.38220   1.00
O2       0.39150    0.93850    0.50320   1.00
O2       0.39150    1.00320    0.43850   1.00
O2       0.32680    0.93850    0.43850   1.00
O2       0.43850    0.89150    0.50320   1.00
O2       0.50320    0.89150    0.43850   1.00
O2       0.43850    0.82680    0.43850   1.00
O2       0.43850    1.00320    0.39150   1.00
O2       0.50320    0.93850    0.39150   1.00
O2       0.43850    0.93850    0.32680   1.00
O2       0.32680    0.89150    0.39150   1.00
O2       0.39150    0.82680    0.39150   1.00
O2       0.39150    0.89150    0.32680   1.00
C1       0.41500    0.91500    0.52020   1.00
C1       0.41500    1.02020    0.41500   1.00
C1       0.30980    0.91500    0.41500   1.00
C1       0.52020    0.91500    0.41500   1.00
C1       0.41500    0.80980    0.41500   1.00
C1       0.41500    0.91500    0.30980   1.00
O1       0.91500    0.41500    0.41500   1.00
Zn1      0.88220    0.44780    0.44780   1.00
Zn1      0.94780    0.38220    0.44780   1.00
Zn1      0.94780    0.44780    0.38220   1.00
Zn1      0.88220    0.38220    0.38220   1.00
O2       0.89150    0.43850    0.50320   1.00
O2       0.89150    0.50320    0.43850   1.00
O2       0.82680    0.43850    0.43850   1.00
O2       0.93850    0.39150    0.50320   1.00
O2       1.00320    0.39150    0.43850   1.00
O2       0.93850    0.32680    0.43850   1.00
O2       0.93850    0.50320    0.39150   1.00
O2       1.00320    0.43850    0.39150   1.00
O2       0.93850    0.43850    0.32680   1.00
O2       0.82680    0.39150    0.39150   1.00
O2       0.89150    0.32680    0.39150   1.00
O2       0.89150    0.39150    0.32680   1.00
C1       0.91500    0.41500    0.52020   1.00
C1       0.91500    0.52020    0.41500   1.00
C1       0.80980    0.41500    0.41500   1.00
C1       1.02020    0.41500    0.41500   1.00
C1       0.91500    0.30980    0.41500   1.00
C1       0.91500    0.41500    0.30980   1.00
O1       0.41500    0.41500    0.41500   1.00
Zn1      0.44780    0.38220    0.38220   1.00
Zn1      0.38220    0.44780    0.38220   1.00
Zn1      0.38220    0.38220    0.44780   1.00
Zn1      0.44780    0.44780    0.44780   1.00
O2       0.43850    0.39150    0.32680   1.00
O2       0.43850    0.32680    0.39150   1.00
O2       0.50320    0.39150    0.39150   1.00
O2       0.39150    0.43850    0.32680   1.00
O2       0.32680    0.43850    0.39150   1.00
O2       0.39150    0.50320    0.39150   1.00
O2       0.39150    0.32680    0.43850   1.00
O2       0.32680    0.39150    0.43850   1.00
O2       0.39150    0.39150    0.50320   1.00
O2       0.50320    0.43850    0.43850   1.00
O2       0.43850    0.50320    0.43850   1.00
O2       0.43850    0.43850    0.50320   1.00
C1       0.41500    0.41500    0.30980   1.00
C1       0.41500    0.30980    0.41500   1.00
C1       0.52020    0.41500    0.41500   1.00
C1       0.30980    0.41500    0.41500   1.00
C1       0.41500    0.52020    0.41500   1.00
C1       0.41500    0.41500    0.52020   1.00
O1       0.91500    0.91500    0.41500   1.00
Zn1      0.94780    0.88220    0.38220   1.00
Zn1      0.88220    0.94780    0.38220   1.00
Zn1      0.88220    0.88220    0.44780   1.00
Zn1      0.94780    0.94780    0.44780   1.00
O2       0.93850    0.89150    0.32680   1.00
O2       0.93850    0.82680    0.39150   1.00
O2       1.00320    0.89150    0.39150   1.00
O2       0.89150    0.93850    0.32680   1.00
O2       0.82680    0.93850    0.39150   1.00
O2       0.89150    1.00320    0.39150   1.00
O2       0.89150    0.82680    0.43850   1.00
O2       0.82680    0.89150    0.43850   1.00
O2       0.89150    0.89150    0.50320   1.00
O2       1.00320    0.93850    0.43850   1.00
O2       0.93850    1.00320    0.43850   1.00
O2       0.93850    0.93850    0.50320   1.00
C1       0.91500    0.91500    0.30980   1.00
C1       0.91500    0.80980    0.41500   1.00
C1       1.02020    0.91500    0.41500   1.00
C1       0.80980    0.91500    0.41500   1.00
C1       0.91500    1.02020    0.41500   1.00
C1       0.91500    0.91500    0.52020   1.00
O1       0.91500    0.41500    0.91500   1.00
Zn1      0.94780    0.38220    0.88220   1.00
Zn1      0.88220    0.44780    0.88220   1.00
Zn1      0.88220    0.38220    0.94780   1.00
Zn1      0.94780    0.44780    0.94780   1.00
O2       0.93850    0.39150    0.82680   1.00
O2       0.93850    0.32680    0.89150   1.00
O2       1.00320    0.39150    0.89150   1.00
O2       0.89150    0.43850    0.82680   1.00
O2       0.82680    0.43850    0.89150   1.00
O2       0.89150    0.50320    0.89150   1.00
O2       0.89150    0.32680    0.93850   1.00
O2       0.82680    0.39150    0.93850   1.00
O2       0.89150    0.39150    1.00320   1.00
O2       1.00320    0.43850    0.93850   1.00
O2       0.93850    0.50320    0.93850   1.00
O2       0.93850    0.43850    1.00320   1.00
C1       0.91500    0.41500    0.80980   1.00
C1       0.91500    0.30980    0.91500   1.00
C1       1.02020    0.41500    0.91500   1.00
C1       0.80980    0.41500    0.91500   1.00
C1       0.91500    0.52020    0.91500   1.00
C1       0.91500    0.41500    1.02020   1.00
O1       0.41500    0.91500    0.91500   1.00
Zn1      0.44780    0.88220    0.88220   1.00
Zn1      0.38220    0.94780    0.88220   1.00
Zn1      0.38220    0.88220    0.94780   1.00
Zn1      0.44780    0.94780    0.94780   1.00
O2       0.43850    0.89150    0.82680   1.00
O2       0.43850    0.82680    0.89150   1.00
O2       0.50320    0.89150    0.89150   1.00
O2       0.39150    0.93850    0.82680   1.00
O2       0.32680    0.93850    0.89150   1.00
O2       0.39150    1.00320    0.89150   1.00
O2       0.39150    0.82680    0.93850   1.00
O2       0.32680    0.89150    0.93850   1.00
O2       0.39150    0.89150    1.00320   1.00
O2       0.50320    0.93850    0.93850   1.00
O2       0.43850    1.00320    0.93850   1.00
O2       0.43850    0.93850    1.00320   1.00
C1       0.41500    0.91500    0.80980   1.00
C1       0.41500    0.80980    0.91500   1.00
C1       0.52020    0.91500    0.91500   1.00
C1       0.30980    0.91500    0.91500   1.00
C1       0.41500    1.02020    0.91500   1.00
C1       0.41500    0.91500    1.02020   1.00
C4       0.75055    0.74945    1.02067   1.00
C4       0.74945    0.75055    0.97933   1.00
C3       0.72828    0.72199    1.04244   1.00
C3       0.72199    0.72828    0.95756   1.00
C4       0.77414    0.77648    1.04150   1.00
C4       0.77648    0.77414    0.95850   1.00
C2       0.74954    0.74957    1.10352   1.00
C2       0.74957    0.74954    0.89648   1.00
C3       0.72764    0.72245    1.08310   1.00
C3       0.72245    0.72764    0.91690   1.00
C3       0.77297    0.77595    1.08306   1.00
C3       0.77595    0.77297    0.91694   1.00
H1       0.71167    0.69904    1.02888   1.00
H1       0.69904    0.71167    0.97112   1.00
C5       0.79865    0.80287    1.02065   1.00
C5       0.80287    0.79865    0.97935   1.00
H1       0.71014    0.70138    1.09886   1.00
H1       0.70138    0.71014    0.90114   1.00
H1       0.79048    0.79538    1.10053   1.00
H1       0.79538    0.79048    0.89947   1.00
C6       0.81888    0.83622    1.04234   1.00
C6       0.83622    0.81888    0.95766   1.00
H2       0.82069    0.86256    1.02358   1.00
H2       0.80145    0.84671    1.06737   1.00
C6       0.85929    0.82371    1.05724   1.00
H2       0.86256    0.82069    0.97642   1.00
H2       0.84671    0.80145    0.93263   1.00
C6       0.82371    0.85929    0.94276   1.00
H2       0.87812    0.81378    1.03274   1.00
C6       0.87931    0.85745    1.07832   1.00
H2       0.85627    0.79856    1.07760   1.00
C6       0.85745    0.87931    0.92168   1.00
H2       0.79856    0.85627    0.92240   1.00
H2       0.81378    0.87812    0.96726   1.00
H2       0.88337    0.88257    1.05822   1.00
H2       0.86169    0.86702    1.10380   1.00
H2       0.90843    0.84803    1.08898   1.00
H2       0.88257    0.88337    0.94178   1.00
H2       0.86702    0.86169    0.89620   1.00
H2       0.84803    0.90843    0.91102   1.00
C4       0.74945    1.02067    0.75055   1.00
C4       0.75055    0.97933    0.74945   1.00
C3       0.72199    1.04244    0.72828   1.00
C3       0.72828    0.95756    0.72199   1.00
C4       0.77648    1.04150    0.77414   1.00
C4       0.77414    0.95850    0.77648   1.00
C2       0.74957    1.10352    0.74954   1.00
C2       0.74954    0.89648    0.74957   1.00
C3       0.72245    1.08310    0.72764   1.00
C3       0.72764    0.91690    0.72245   1.00
C3       0.77595    1.08306    0.77297   1.00
C3       0.77297    0.91694    0.77595   1.00
H1       0.69904    1.02888    0.71167   1.00
H1       0.71167    0.97112    0.69904   1.00
C5       0.80287    1.02065    0.79865   1.00
C5       0.79865    0.97935    0.80287   1.00
H1       0.70138    1.09886    0.71014   1.00
H1       0.71014    0.90114    0.70138   1.00
H1       0.79538    1.10053    0.79048   1.00
H1       0.79048    0.89947    0.79538   1.00
C6       0.83622    1.04234    0.81888   1.00
C6       0.81888    0.95766    0.83622   1.00
H2       0.86256    1.02358    0.82069   1.00
H2       0.84671    1.06737    0.80145   1.00
C6       0.82371    1.05724    0.85929   1.00
H2       0.82069    0.97642    0.86256   1.00
H2       0.80145    0.93263    0.84671   1.00
C6       0.85929    0.94276    0.82371   1.00
H2       0.81378    1.03274    0.87812   1.00
C6       0.85745    1.07832    0.87931   1.00
H2       0.79856    1.07760    0.85627   1.00
C6       0.87931    0.92168    0.85745   1.00
H2       0.85627    0.92240    0.79856   1.00
H2       0.87812    0.96726    0.81378   1.00
H2       0.88257    1.05822    0.88337   1.00
H2       0.86702    1.10380    0.86169   1.00
H2       0.84803    1.08898    0.90843   1.00
H2       0.88337    0.94178    0.88257   1.00
H2       0.86169    0.89620    0.86702   1.00
H2       0.90843    0.91102    0.84803   1.00
C4       0.47933    0.75055    0.75055   1.00
C4       0.52067    0.74945    0.74945   1.00
C3       0.45756    0.72828    0.77801   1.00
C3       0.54244    0.72199    0.77172   1.00
C4       0.45850    0.77414    0.72352   1.00
C4       0.54150    0.77648    0.72586   1.00
C2       0.39648    0.74954    0.75043   1.00
C2       0.60352    0.74957    0.75046   1.00
C3       0.41690    0.72764    0.77755   1.00
C3       0.58310    0.72245    0.77236   1.00
C3       0.41694    0.77297    0.72405   1.00
C3       0.58306    0.77595    0.72703   1.00
H1       0.47112    0.71167    0.80096   1.00
H1       0.52888    0.69904    0.78833   1.00
C5       0.47935    0.79865    0.69713   1.00
C5       0.52065    0.80287    0.70135   1.00
H1       0.40114    0.71014    0.79862   1.00
H1       0.59886    0.70138    0.78986   1.00
H1       0.39947    0.79048    0.70462   1.00
H1       0.60053    0.79538    0.70952   1.00
C6       0.45766    0.81888    0.66378   1.00
C6       0.54234    0.83622    0.68112   1.00
H2       0.47642    0.82069    0.63744   1.00
H2       0.43263    0.80145    0.65329   1.00
C6       0.44276    0.85929    0.67629   1.00
H2       0.52358    0.86256    0.67931   1.00
H2       0.56737    0.84671    0.69855   1.00
C6       0.55724    0.82371    0.64071   1.00
H2       0.46726    0.87812    0.68622   1.00
C6       0.42168    0.87931    0.64255   1.00
H2       0.42240    0.85627    0.70144   1.00
C6       0.57832    0.85745    0.62069   1.00
H2       0.57760    0.79856    0.64373   1.00
H2       0.53274    0.81378    0.62188   1.00
H2       0.44178    0.88337    0.61743   1.00
H2       0.39620    0.86169    0.63298   1.00
H2       0.41102    0.90843    0.65197   1.00
H2       0.55822    0.88257    0.61663   1.00
H2       0.60380    0.86702    0.63831   1.00
H2       0.58898    0.84803    0.59157   1.00
C4       1.02067    0.75055    0.74945   1.00
C4       0.97933    0.74945    0.75055   1.00
C3       1.04244    0.72828    0.72199   1.00
C3       0.95756    0.72199    0.72828   1.00
C4       1.04150    0.77414    0.77648   1.00
C4       0.95850    0.77648    0.77414   1.00
C2       1.10352    0.74954    0.74957   1.00
C2       0.89648    0.74957    0.74954   1.00
C3       1.08310    0.72764    0.72245   1.00
C3       0.91690    0.72245    0.72764   1.00
C3       1.08306    0.77297    0.77595   1.00
C3       0.91694    0.77595    0.77297   1.00
H1       1.02888    0.71167    0.69904   1.00
H1       0.97112    0.69904    0.71167   1.00
C5       1.02065    0.79865    0.80287   1.00
C5       0.97935    0.80287    0.79865   1.00
H1       1.09886    0.71014    0.70138   1.00
H1       0.90114    0.70138    0.71014   1.00
H1       1.10053    0.79048    0.79538   1.00
H1       0.89947    0.79538    0.79048   1.00
C6       1.04234    0.81888    0.83622   1.00
C6       0.95766    0.83622    0.81888   1.00
H2       1.02358    0.82069    0.86256   1.00
H2       1.06737    0.80145    0.84671   1.00
C6       1.05724    0.85929    0.82371   1.00
H2       0.97642    0.86256    0.82069   1.00
H2       0.93263    0.84671    0.80145   1.00
C6       0.94276    0.82371    0.85929   1.00
H2       1.03274    0.87812    0.81378   1.00
C6       1.07832    0.87931    0.85745   1.00
H2       1.07760    0.85627    0.79856   1.00
C6       0.92168    0.85745    0.87931   1.00
H2       0.92240    0.79856    0.85627   1.00
H2       0.96726    0.81378    0.87812   1.00
H2       1.05822    0.88337    0.88257   1.00
H2       1.10380    0.86169    0.86702   1.00
H2       1.08898    0.90843    0.84803   1.00
H2       0.94178    0.88257    0.88337   1.00
H2       0.89620    0.86702    0.86169   1.00
H2       0.91102    0.84803    0.90843   1.00
C4       0.75055    0.47933    0.75055   1.00
C4       0.74945    0.52067    0.74945   1.00
C3       0.77801    0.45756    0.72828   1.00
C3       0.77172    0.54244    0.72199   1.00
C4       0.72352    0.45850    0.77414   1.00
C4       0.72586    0.54150    0.77648   1.00
C2       0.75043    0.39648    0.74954   1.00
C2       0.75046    0.60352    0.74957   1.00
C3       0.77755    0.41690    0.72764   1.00
C3       0.77236    0.58310    0.72245   1.00
C3       0.72405    0.41694    0.77297   1.00
C3       0.72703    0.58306    0.77595   1.00
H1       0.80096    0.47112    0.71167   1.00
H1       0.78833    0.52888    0.69904   1.00
C5       0.69713    0.47935    0.79865   1.00
C5       0.70135    0.52065    0.80287   1.00
H1       0.79862    0.40114    0.71014   1.00
H1       0.78986    0.59886    0.70138   1.00
H1       0.70462    0.39947    0.79048   1.00
H1       0.70952    0.60053    0.79538   1.00
C6       0.66378    0.45766    0.81888   1.00
C6       0.68112    0.54234    0.83622   1.00
H2       0.63744    0.47642    0.82069   1.00
H2       0.65329    0.43263    0.80145   1.00
C6       0.67629    0.44276    0.85929   1.00
H2       0.67931    0.52358    0.86256   1.00
H2       0.69855    0.56737    0.84671   1.00
C6       0.64071    0.55724    0.82371   1.00
H2       0.68622    0.46726    0.87812   1.00
C6       0.64255    0.42168    0.87931   1.00
H2       0.70144    0.42240    0.85627   1.00
C6       0.62069    0.57832    0.85745   1.00
H2       0.64373    0.57760    0.79856   1.00
H2       0.62188    0.53274    0.81378   1.00
H2       0.61743    0.44178    0.88337   1.00
H2       0.63298    0.39620    0.86169   1.00
H2       0.65197    0.41102    0.90843   1.00
H2       0.61663    0.55822    0.88257   1.00
H2       0.63831    0.60380    0.86702   1.00
H2       0.59157    0.58898    0.84803   1.00
C4       0.75055    0.75055    0.47933   1.00
C4       0.74945    0.74945    0.52067   1.00
C3       0.72828    0.77801    0.45756   1.00
C3       0.72199    0.77172    0.54244   1.00
C4       0.77414    0.72352    0.45850   1.00
C4       0.77648    0.72586    0.54150   1.00
C2       0.74954    0.75043    0.39648   1.00
C2       0.74957    0.75046    0.60352   1.00
C3       0.72764    0.77755    0.41690   1.00
C3       0.72245    0.77236    0.58310   1.00
C3       0.77297    0.72405    0.41694   1.00
C3       0.77595    0.72703    0.58306   1.00
H1       0.71167    0.80096    0.47112   1.00
H1       0.69904    0.78833    0.52888   1.00
C5       0.79865    0.69713    0.47935   1.00
C5       0.80287    0.70135    0.52065   1.00
H1       0.71014    0.79862    0.40114   1.00
H1       0.70138    0.78986    0.59886   1.00
H1       0.79048    0.70462    0.39947   1.00
H1       0.79538    0.70952    0.60053   1.00
C6       0.81888    0.66378    0.45766   1.00
C6       0.83622    0.68112    0.54234   1.00
H2       0.82069    0.63744    0.47642   1.00
H2       0.80145    0.65329    0.43263   1.00
C6       0.85929    0.67629    0.44276   1.00
H2       0.86256    0.67931    0.52358   1.00
H2       0.84671    0.69855    0.56737   1.00
C6       0.82371    0.64071    0.55724   1.00
H2       0.87812    0.68622    0.46726   1.00
C6       0.87931    0.64255    0.42168   1.00
H2       0.85627    0.70144    0.42240   1.00
C6       0.85745    0.62069    0.57832   1.00
H2       0.79856    0.64373    0.57760   1.00
H2       0.81378    0.62188    0.53274   1.00
H2       0.88337    0.61743    0.44178   1.00
H2       0.86169    0.63298    0.39620   1.00
H2       0.90843    0.65197    0.41102   1.00
H2       0.88257    0.61663    0.55822   1.00
H2       0.86702    0.63831    0.60380   1.00
H2       0.84803    0.59157    0.58898   1.00
C4       0.25055    0.24945    1.02067   1.00
C4       0.24945    0.25055    0.97933   1.00
C3       0.22828    0.22199    1.04244   1.00
C3       0.22199    0.22828    0.95756   1.00
C4       0.27414    0.27648    1.04150   1.00
C4       0.27648    0.27414    0.95850   1.00
C2       0.24954    0.24957    1.10352   1.00
C2       0.24957    0.24954    0.89648   1.00
C3       0.22764    0.22245    1.08310   1.00
C3       0.22245    0.22764    0.91690   1.00
C3       0.27297    0.27595    1.08306   1.00
C3       0.27595    0.27297    0.91694   1.00
H1       0.21167    0.19904    1.02888   1.00
H1       0.19904    0.21167    0.97112   1.00
C5       0.29865    0.30287    1.02065   1.00
C5       0.30287    0.29865    0.97935   1.00
H1       0.21014    0.20138    1.09886   1.00
H1       0.20138    0.21014    0.90114   1.00
H1       0.29048    0.29538    1.10053   1.00
H1       0.29538    0.29048    0.89947   1.00
C6       0.31888    0.33622    1.04234   1.00
C6       0.33622    0.31888    0.95766   1.00
H2       0.32069    0.36256    1.02358   1.00
H2       0.30145    0.34671    1.06737   1.00
C6       0.35929    0.32371    1.05724   1.00
H2       0.36256    0.32069    0.97642   1.00
H2       0.34671    0.30145    0.93263   1.00
C6       0.32371    0.35929    0.94276   1.00
H2       0.37812    0.31378    1.03274   1.00
C6       0.37931    0.35745    1.07832   1.00
H2       0.35627    0.29856    1.07760   1.00
C6       0.35745    0.37931    0.92168   1.00
H2       0.29856    0.35627    0.92240   1.00
H2       0.31378    0.37812    0.96726   1.00
H2       0.38337    0.38257    1.05822   1.00
H2       0.36169    0.36702    1.10380   1.00
H2       0.40843    0.34803    1.08898   1.00
H2       0.38257    0.38337    0.94178   1.00
H2       0.36702    0.36169    0.89620   1.00
H2       0.34803    0.40843    0.91102   1.00
C4       0.24945    0.52067    0.75055   1.00
C4       0.25055    0.47933    0.74945   1.00
C3       0.22199    0.54244    0.72828   1.00
C3       0.22828    0.45756    0.72199   1.00
C4       0.27648    0.54150    0.77414   1.00
C4       0.27414    0.45850    0.77648   1.00
C2       0.24957    0.60352    0.74954   1.00
C2       0.24954    0.39648    0.74957   1.00
C3       0.22245    0.58310    0.72764   1.00
C3       0.22764    0.41690    0.72245   1.00
C3       0.27595    0.58306    0.77297   1.00
C3       0.27297    0.41694    0.77595   1.00
H1       0.19904    0.52888    0.71167   1.00
H1       0.21167    0.47112    0.69904   1.00
C5       0.30287    0.52065    0.79865   1.00
C5       0.29865    0.47935    0.80287   1.00
H1       0.20138    0.59886    0.71014   1.00
H1       0.21014    0.40114    0.70138   1.00
H1       0.29538    0.60053    0.79048   1.00
H1       0.29048    0.39947    0.79538   1.00
C6       0.33622    0.54234    0.81888   1.00
C6       0.31888    0.45766    0.83622   1.00
H2       0.36256    0.52358    0.82069   1.00
H2       0.34671    0.56737    0.80145   1.00
C6       0.32371    0.55724    0.85929   1.00
H2       0.32069    0.47642    0.86256   1.00
H2       0.30145    0.43263    0.84671   1.00
C6       0.35929    0.44276    0.82371   1.00
H2       0.31378    0.53274    0.87812   1.00
C6       0.35745    0.57832    0.87931   1.00
H2       0.29856    0.57760    0.85627   1.00
C6       0.37931    0.42168    0.85745   1.00
H2       0.35627    0.42240    0.79856   1.00
H2       0.37812    0.46726    0.81378   1.00
H2       0.38257    0.55822    0.88337   1.00
H2       0.36702    0.60380    0.86169   1.00
H2       0.34803    0.58898    0.90843   1.00
H2       0.38337    0.44178    0.88257   1.00
H2       0.36169    0.39620    0.86702   1.00
H2       0.40843    0.41102    0.84803   1.00
C4       -0.02067   0.25055    0.75055   1.00
C4       0.02067    0.24945    0.74945   1.00
C3       -0.04244   0.22828    0.77801   1.00
C3       0.04244    0.22199    0.77172   1.00
C4       -0.04150   0.27414    0.72352   1.00
C4       0.04150    0.27648    0.72586   1.00
C2       -0.10352   0.24954    0.75043   1.00
C2       0.10352    0.24957    0.75046   1.00
C3       -0.08310   0.22764    0.77755   1.00
C3       0.08310    0.22245    0.77236   1.00
C3       -0.08306   0.27297    0.72405   1.00
C3       0.08306    0.27595    0.72703   1.00
H1       -0.02888   0.21167    0.80096   1.00
H1       0.02888    0.19904    0.78833   1.00
C5       -0.02065   0.29865    0.69713   1.00
C5       0.02065    0.30287    0.70135   1.00
H1       -0.09886   0.21014    0.79862   1.00
H1       0.09886    0.20138    0.78986   1.00
H1       -0.10053   0.29048    0.70462   1.00
H1       0.10053    0.29538    0.70952   1.00
C6       -0.04234   0.31888    0.66378   1.00
C6       0.04234    0.33622    0.68112   1.00
H2       -0.02358   0.32069    0.63744   1.00
H2       -0.06737   0.30145    0.65329   1.00
C6       -0.05724   0.35929    0.67629   1.00
H2       0.02358    0.36256    0.67931   1.00
H2       0.06737    0.34671    0.69855   1.00
C6       0.05724    0.32371    0.64071   1.00
H2       -0.03274   0.37812    0.68622   1.00
C6       -0.07832   0.37931    0.64255   1.00
H2       -0.07760   0.35627    0.70144   1.00
C6       0.07832    0.35745    0.62069   1.00
H2       0.07760    0.29856    0.64373   1.00
H2       0.03274    0.31378    0.62188   1.00
H2       -0.05822   0.38337    0.61743   1.00
H2       -0.10380   0.36169    0.63298   1.00
H2       -0.08898   0.40843    0.65197   1.00
H2       0.05822    0.38257    0.61663   1.00
H2       0.10380    0.36702    0.63831   1.00
H2       0.08898    0.34803    0.59157   1.00
C4       0.52067    0.25055    0.74945   1.00
C4       0.47933    0.24945    0.75055   1.00
C3       0.54244    0.22828    0.72199   1.00
C3       0.45756    0.22199    0.72828   1.00
C4       0.54150    0.27414    0.77648   1.00
C4       0.45850    0.27648    0.77414   1.00
C2       0.60352    0.24954    0.74957   1.00
C2       0.39648    0.24957    0.74954   1.00
C3       0.58310    0.22764    0.72245   1.00
C3       0.41690    0.22245    0.72764   1.00
C3       0.58306    0.27297    0.77595   1.00
C3       0.41694    0.27595    0.77297   1.00
H1       0.52888    0.21167    0.69904   1.00
H1       0.47112    0.19904    0.71167   1.00
C5       0.52065    0.29865    0.80287   1.00
C5       0.47935    0.30287    0.79865   1.00
H1       0.59886    0.21014    0.70138   1.00
H1       0.40114    0.20138    0.71014   1.00
H1       0.60053    0.29048    0.79538   1.00
H1       0.39947    0.29538    0.79048   1.00
C6       0.54234    0.31888    0.83622   1.00
C6       0.45766    0.33622    0.81888   1.00
H2       0.52358    0.32069    0.86256   1.00
H2       0.56737    0.30145    0.84671   1.00
C6       0.55724    0.35929    0.82371   1.00
H2       0.47642    0.36256    0.82069   1.00
H2       0.43263    0.34671    0.80145   1.00
C6       0.44276    0.32371    0.85929   1.00
H2       0.53274    0.37812    0.81378   1.00
C6       0.57832    0.37931    0.85745   1.00
H2       0.57760    0.35627    0.79856   1.00
C6       0.42168    0.35745    0.87931   1.00
H2       0.42240    0.29856    0.85627   1.00
H2       0.46726    0.31378    0.87812   1.00
H2       0.55822    0.38337    0.88257   1.00
H2       0.60380    0.36169    0.86702   1.00
H2       0.58898    0.40843    0.84803   1.00
H2       0.44178    0.38257    0.88337   1.00
H2       0.39620    0.36702    0.86169   1.00
H2       0.41102    0.34803    0.90843   1.00
C4       0.25055    -0.02067   0.75055   1.00
C4       0.24945    0.02067    0.74945   1.00
C3       0.27801    -0.04244   0.72828   1.00
C3       0.27172    0.04244    0.72199   1.00
C4       0.22352    -0.04150   0.77414   1.00
C4       0.22586    0.04150    0.77648   1.00
C2       0.25043    -0.10352   0.74954   1.00
C2       0.25046    0.10352    0.74957   1.00
C3       0.27755    -0.08310   0.72764   1.00
C3       0.27236    0.08310    0.72245   1.00
C3       0.22405    -0.08306   0.77297   1.00
C3       0.22703    0.08306    0.77595   1.00
H1       0.30096    -0.02888   0.71167   1.00
H1       0.28833    0.02888    0.69904   1.00
C5       0.19713    -0.02065   0.79865   1.00
C5       0.20135    0.02065    0.80287   1.00
H1       0.29862    -0.09886   0.71014   1.00
H1       0.28986    0.09886    0.70138   1.00
H1       0.20462    -0.10053   0.79048   1.00
H1       0.20952    0.10053    0.79538   1.00
C6       0.16378    -0.04234   0.81888   1.00
C6       0.18112    0.04234    0.83622   1.00
H2       0.13744    -0.02358   0.82069   1.00
H2       0.15329    -0.06737   0.80145   1.00
C6       0.17629    -0.05724   0.85929   1.00
H2       0.17931    0.02358    0.86256   1.00
H2       0.19855    0.06737    0.84671   1.00
C6       0.14071    0.05724    0.82371   1.00
H2       0.18622    -0.03274   0.87812   1.00
C6       0.14255    -0.07832   0.87931   1.00
H2       0.20144    -0.07760   0.85627   1.00
C6       0.12069    0.07832    0.85745   1.00
H2       0.14373    0.07760    0.79856   1.00
H2       0.12188    0.03274    0.81378   1.00
H2       0.11743    -0.05822   0.88337   1.00
H2       0.13298    -0.10380   0.86169   1.00
H2       0.15197    -0.08898   0.90843   1.00
H2       0.11663    0.05822    0.88257   1.00
H2       0.13831    0.10380    0.86702   1.00
H2       0.09157    0.08898    0.84803   1.00
C4       0.25055    0.25055    0.47933   1.00
C4       0.24945    0.24945    0.52067   1.00
C3       0.22828    0.27801    0.45756   1.00
C3       0.22199    0.27172    0.54244   1.00
C4       0.27414    0.22352    0.45850   1.00
C4       0.27648    0.22586    0.54150   1.00
C2       0.24954    0.25043    0.39648   1.00
C2       0.24957    0.25046    0.60352   1.00
C3       0.22764    0.27755    0.41690   1.00
C3       0.22245    0.27236    0.58310   1.00
C3       0.27297    0.22405    0.41694   1.00
C3       0.27595    0.22703    0.58306   1.00
H1       0.21167    0.30096    0.47112   1.00
H1       0.19904    0.28833    0.52888   1.00
C5       0.29865    0.19713    0.47935   1.00
C5       0.30287    0.20135    0.52065   1.00
H1       0.21014    0.29862    0.40114   1.00
H1       0.20138    0.28986    0.59886   1.00
H1       0.29048    0.20462    0.39947   1.00
H1       0.29538    0.20952    0.60053   1.00
C6       0.31888    0.16378    0.45766   1.00
C6       0.33622    0.18112    0.54234   1.00
H2       0.32069    0.13744    0.47642   1.00
H2       0.30145    0.15329    0.43263   1.00
C6       0.35929    0.17629    0.44276   1.00
H2       0.36256    0.17931    0.52358   1.00
H2       0.34671    0.19855    0.56737   1.00
C6       0.32371    0.14071    0.55724   1.00
H2       0.37812    0.18622    0.46726   1.00
C6       0.37931    0.14255    0.42168   1.00
H2       0.35627    0.20144    0.42240   1.00
C6       0.35745    0.12069    0.57832   1.00
H2       0.29856    0.14373    0.57760   1.00
H2       0.31378    0.12188    0.53274   1.00
H2       0.38337    0.11743    0.44178   1.00
H2       0.36169    0.13298    0.39620   1.00
H2       0.40843    0.15197    0.41102   1.00
H2       0.38257    0.11663    0.55822   1.00
H2       0.36702    0.13831    0.60380   1.00
H2       0.34803    0.09157    0.58898   1.00
C4       0.25055    0.74945    0.52067   1.00
C4       0.24945    0.75055    0.47933   1.00
C3       0.22828    0.72199    0.54244   1.00
C3       0.22199    0.72828    0.45756   1.00
C4       0.27414    0.77648    0.54150   1.00
C4       0.27648    0.77414    0.45850   1.00
C2       0.24954    0.74957    0.60352   1.00
C2       0.24957    0.74954    0.39648   1.00
C3       0.22764    0.72245    0.58310   1.00
C3       0.22245    0.72764    0.41690   1.00
C3       0.27297    0.77595    0.58306   1.00
C3       0.27595    0.77297    0.41694   1.00
H1       0.21167    0.69904    0.52888   1.00
H1       0.19904    0.71167    0.47112   1.00
C5       0.29865    0.80287    0.52065   1.00
C5       0.30287    0.79865    0.47935   1.00
H1       0.21014    0.70138    0.59886   1.00
H1       0.20138    0.71014    0.40114   1.00
H1       0.29048    0.79538    0.60053   1.00
H1       0.29538    0.79048    0.39947   1.00
C6       0.31888    0.83622    0.54234   1.00
C6       0.33622    0.81888    0.45766   1.00
H2       0.32069    0.86256    0.52358   1.00
H2       0.30145    0.84671    0.56737   1.00
C6       0.35929    0.82371    0.55724   1.00
H2       0.36256    0.82069    0.47642   1.00
H2       0.34671    0.80145    0.43263   1.00
C6       0.32371    0.85929    0.44276   1.00
H2       0.37812    0.81378    0.53274   1.00
C6       0.37931    0.85745    0.57832   1.00
H2       0.35627    0.79856    0.57760   1.00
C6       0.35745    0.87931    0.42168   1.00
H2       0.29856    0.85627    0.42240   1.00
H2       0.31378    0.87812    0.46726   1.00
H2       0.38337    0.88257    0.55822   1.00
H2       0.36169    0.86702    0.60380   1.00
H2       0.40843    0.84803    0.58898   1.00
H2       0.38257    0.88337    0.44178   1.00
H2       0.36702    0.86169    0.39620   1.00
H2       0.34803    0.90843    0.41102   1.00
C4       0.24945    1.02067    0.25055   1.00
C4       0.25055    0.97933    0.24945   1.00
C3       0.22199    1.04244    0.22828   1.00
C3       0.22828    0.95756    0.22199   1.00
C4       0.27648    1.04150    0.27414   1.00
C4       0.27414    0.95850    0.27648   1.00
C2       0.24957    1.10352    0.24954   1.00
C2       0.24954    0.89648    0.24957   1.00
C3       0.22245    1.08310    0.22764   1.00
C3       0.22764    0.91690    0.22245   1.00
C3       0.27595    1.08306    0.27297   1.00
C3       0.27297    0.91694    0.27595   1.00
H1       0.19904    1.02888    0.21167   1.00
H1       0.21167    0.97112    0.19904   1.00
C5       0.30287    1.02065    0.29865   1.00
C5       0.29865    0.97935    0.30287   1.00
H1       0.20138    1.09886    0.21014   1.00
H1       0.21014    0.90114    0.20138   1.00
H1       0.29538    1.10053    0.29048   1.00
H1       0.29048    0.89947    0.29538   1.00
C6       0.33622    1.04234    0.31888   1.00
C6       0.31888    0.95766    0.33622   1.00
H2       0.36256    1.02358    0.32069   1.00
H2       0.34671    1.06737    0.30145   1.00
C6       0.32371    1.05724    0.35929   1.00
H2       0.32069    0.97642    0.36256   1.00
H2       0.30145    0.93263    0.34671   1.00
C6       0.35929    0.94276    0.32371   1.00
H2       0.31378    1.03274    0.37812   1.00
C6       0.35745    1.07832    0.37931   1.00
H2       0.29856    1.07760    0.35627   1.00
C6       0.37931    0.92168    0.35745   1.00
H2       0.35627    0.92240    0.29856   1.00
H2       0.37812    0.96726    0.31378   1.00
H2       0.38257    1.05822    0.38337   1.00
H2       0.36702    1.10380    0.36169   1.00
H2       0.34803    1.08898    0.40843   1.00
H2       0.38337    0.94178    0.38257   1.00
H2       0.36169    0.89620    0.36702   1.00
H2       0.40843    0.91102    0.34803   1.00
C4       -0.02067   0.75055    0.25055   1.00
C4       0.02067    0.74945    0.24945   1.00
C3       -0.04244   0.72828    0.27801   1.00
C3       0.04244    0.72199    0.27172   1.00
C4       -0.04150   0.77414    0.22352   1.00
C4       0.04150    0.77648    0.22586   1.00
C2       -0.10352   0.74954    0.25043   1.00
C2       0.10352    0.74957    0.25046   1.00
C3       -0.08310   0.72764    0.27755   1.00
C3       0.08310    0.72245    0.27236   1.00
C3       -0.08306   0.77297    0.22405   1.00
C3       0.08306    0.77595    0.22703   1.00
H1       -0.02888   0.71167    0.30096   1.00
H1       0.02888    0.69904    0.28833   1.00
C5       -0.02065   0.79865    0.19713   1.00
C5       0.02065    0.80287    0.20135   1.00
H1       -0.09886   0.71014    0.29862   1.00
H1       0.09886    0.70138    0.28986   1.00
H1       -0.10053   0.79048    0.20462   1.00
H1       0.10053    0.79538    0.20952   1.00
C6       -0.04234   0.81888    0.16378   1.00
C6       0.04234    0.83622    0.18112   1.00
H2       -0.02358   0.82069    0.13744   1.00
H2       -0.06737   0.80145    0.15329   1.00
C6       -0.05724   0.85929    0.17629   1.00
H2       0.02358    0.86256    0.17931   1.00
H2       0.06737    0.84671    0.19855   1.00
C6       0.05724    0.82371    0.14071   1.00
H2       -0.03274   0.87812    0.18622   1.00
C6       -0.07832   0.87931    0.14255   1.00
H2       -0.07760   0.85627    0.20144   1.00
C6       0.07832    0.85745    0.12069   1.00
H2       0.07760    0.79856    0.14373   1.00
H2       0.03274    0.81378    0.12188   1.00
H2       -0.05822   0.88337    0.11743   1.00
H2       -0.10380   0.86169    0.13298   1.00
H2       -0.08898   0.90843    0.15197   1.00
H2       0.05822    0.88257    0.11663   1.00
H2       0.10380    0.86702    0.13831   1.00
H2       0.08898    0.84803    0.09157   1.00
C4       0.52067    0.75055    0.24945   1.00
C4       0.47933    0.74945    0.25055   1.00
C3       0.54244    0.72828    0.22199   1.00
C3       0.45756    0.72199    0.22828   1.00
C4       0.54150    0.77414    0.27648   1.00
C4       0.45850    0.77648    0.27414   1.00
C2       0.60352    0.74954    0.24957   1.00
C2       0.39648    0.74957    0.24954   1.00
C3       0.58310    0.72764    0.22245   1.00
C3       0.41690    0.72245    0.22764   1.00
C3       0.58306    0.77297    0.27595   1.00
C3       0.41694    0.77595    0.27297   1.00
H1       0.52888    0.71167    0.19904   1.00
H1       0.47112    0.69904    0.21167   1.00
C5       0.52065    0.79865    0.30287   1.00
C5       0.47935    0.80287    0.29865   1.00
H1       0.59886    0.71014    0.20138   1.00
H1       0.40114    0.70138    0.21014   1.00
H1       0.60053    0.79048    0.29538   1.00
H1       0.39947    0.79538    0.29048   1.00
C6       0.54234    0.81888    0.33622   1.00
C6       0.45766    0.83622    0.31888   1.00
H2       0.52358    0.82069    0.36256   1.00
H2       0.56737    0.80145    0.34671   1.00
C6       0.55724    0.85929    0.32371   1.00
H2       0.47642    0.86256    0.32069   1.00
H2       0.43263    0.84671    0.30145   1.00
C6       0.44276    0.82371    0.35929   1.00
H2       0.53274    0.87812    0.31378   1.00
C6       0.57832    0.87931    0.35745   1.00
H2       0.57760    0.85627    0.29856   1.00
C6       0.42168    0.85745    0.37931   1.00
H2       0.42240    0.79856    0.35627   1.00
H2       0.46726    0.81378    0.37812   1.00
H2       0.55822    0.88337    0.38257   1.00
H2       0.60380    0.86169    0.36702   1.00
H2       0.58898    0.90843    0.34803   1.00
H2       0.44178    0.88257    0.38337   1.00
H2       0.39620    0.86702    0.36169   1.00
H2       0.41102    0.84803    0.40843   1.00
C4       0.25055    0.47933    0.25055   1.00
C4       0.24945    0.52067    0.24945   1.00
C3       0.27801    0.45756    0.22828   1.00
C3       0.27172    0.54244    0.22199   1.00
C4       0.22352    0.45850    0.27414   1.00
C4       0.22586    0.54150    0.27648   1.00
C2       0.25043    0.39648    0.24954   1.00
C2       0.25046    0.60352    0.24957   1.00
C3       0.27755    0.41690    0.22764   1.00
C3       0.27236    0.58310    0.22245   1.00
C3       0.22405    0.41694    0.27297   1.00
C3       0.22703    0.58306    0.27595   1.00
H1       0.30096    0.47112    0.21167   1.00
H1       0.28833    0.52888    0.19904   1.00
C5       0.19713    0.47935    0.29865   1.00
C5       0.20135    0.52065    0.30287   1.00
H1       0.29862    0.40114    0.21014   1.00
H1       0.28986    0.59886    0.20138   1.00
H1       0.20462    0.39947    0.29048   1.00
H1       0.20952    0.60053    0.29538   1.00
C6       0.16378    0.45766    0.31888   1.00
C6       0.18112    0.54234    0.33622   1.00
H2       0.13744    0.47642    0.32069   1.00
H2       0.15329    0.43263    0.30145   1.00
C6       0.17629    0.44276    0.35929   1.00
H2       0.17931    0.52358    0.36256   1.00
H2       0.19855    0.56737    0.34671   1.00
C6       0.14071    0.55724    0.32371   1.00
H2       0.18622    0.46726    0.37812   1.00
C6       0.14255    0.42168    0.37931   1.00
H2       0.20144    0.42240    0.35627   1.00
C6       0.12069    0.57832    0.35745   1.00
H2       0.14373    0.57760    0.29856   1.00
H2       0.12188    0.53274    0.31378   1.00
H2       0.11743    0.44178    0.38337   1.00
H2       0.13298    0.39620    0.36169   1.00
H2       0.15197    0.41102    0.40843   1.00
H2       0.11663    0.55822    0.38257   1.00
H2       0.13831    0.60380    0.36702   1.00
H2       0.09157    0.58898    0.34803   1.00
C4       0.25055    0.75055    -0.02067   1.00
C4       0.24945    0.74945    0.02067   1.00
C3       0.22828    0.77801    -0.04244   1.00
C3       0.22199    0.77172    0.04244   1.00
C4       0.27414    0.72352    -0.04150   1.00
C4       0.27648    0.72586    0.04150   1.00
C2       0.24954    0.75043    -0.10352   1.00
C2       0.24957    0.75046    0.10352   1.00
C3       0.22764    0.77755    -0.08310   1.00
C3       0.22245    0.77236    0.08310   1.00
C3       0.27297    0.72405    -0.08306   1.00
C3       0.27595    0.72703    0.08306   1.00
H1       0.21167    0.80096    -0.02888   1.00
H1       0.19904    0.78833    0.02888   1.00
C5       0.29865    0.69713    -0.02065   1.00
C5       0.30287    0.70135    0.02065   1.00
H1       0.21014    0.79862    -0.09886   1.00
H1       0.20138    0.78986    0.09886   1.00
H1       0.29048    0.70462    -0.10053   1.00
H1       0.29538    0.70952    0.10053   1.00
C6       0.31888    0.66378    -0.04234   1.00
C6       0.33622    0.68112    0.04234   1.00
H2       0.32069    0.63744    -0.02358   1.00
H2       0.30145    0.65329    -0.06737   1.00
C6       0.35929    0.67629    -0.05724   1.00
H2       0.36256    0.67931    0.02358   1.00
H2       0.34671    0.69855    0.06737   1.00
C6       0.32371    0.64071    0.05724   1.00
H2       0.37812    0.68622    -0.03274   1.00
C6       0.37931    0.64255    -0.07832   1.00
H2       0.35627    0.70144    -0.07760   1.00
C6       0.35745    0.62069    0.07832   1.00
H2       0.29856    0.64373    0.07760   1.00
H2       0.31378    0.62188    0.03274   1.00
H2       0.38337    0.61743    -0.05822   1.00
H2       0.36169    0.63298    -0.10380   1.00
H2       0.40843    0.65197    -0.08898   1.00
H2       0.38257    0.61663    0.05822   1.00
H2       0.36702    0.63831    0.10380   1.00
H2       0.34803    0.59157    0.08898   1.00
C4       0.75055    0.24945    0.52067   1.00
C4       0.74945    0.25055    0.47933   1.00
C3       0.72828    0.22199    0.54244   1.00
C3       0.72199    0.22828    0.45756   1.00
C4       0.77414    0.27648    0.54150   1.00
C4       0.77648    0.27414    0.45850   1.00
C2       0.74954    0.24957    0.60352   1.00
C2       0.74957    0.24954    0.39648   1.00
C3       0.72764    0.22245    0.58310   1.00
C3       0.72245    0.22764    0.41690   1.00
C3       0.77297    0.27595    0.58306   1.00
C3       0.77595    0.27297    0.41694   1.00
H1       0.71167    0.19904    0.52888   1.00
H1       0.69904    0.21167    0.47112   1.00
C5       0.79865    0.30287    0.52065   1.00
C5       0.80287    0.29865    0.47935   1.00
H1       0.71014    0.20138    0.59886   1.00
H1       0.70138    0.21014    0.40114   1.00
H1       0.79048    0.29538    0.60053   1.00
H1       0.79538    0.29048    0.39947   1.00
C6       0.81888    0.33622    0.54234   1.00
C6       0.83622    0.31888    0.45766   1.00
H2       0.82069    0.36256    0.52358   1.00
H2       0.80145    0.34671    0.56737   1.00
C6       0.85929    0.32371    0.55724   1.00
H2       0.86256    0.32069    0.47642   1.00
H2       0.84671    0.30145    0.43263   1.00
C6       0.82371    0.35929    0.44276   1.00
H2       0.87812    0.31378    0.53274   1.00
C6       0.87931    0.35745    0.57832   1.00
H2       0.85627    0.29856    0.57760   1.00
C6       0.85745    0.37931    0.42168   1.00
H2       0.79856    0.35627    0.42240   1.00
H2       0.81378    0.37812    0.46726   1.00
H2       0.88337    0.38257    0.55822   1.00
H2       0.86169    0.36702    0.60380   1.00
H2       0.90843    0.34803    0.58898   1.00
H2       0.88257    0.38337    0.44178   1.00
H2       0.86702    0.36169    0.39620   1.00
H2       0.84803    0.40843    0.41102   1.00
C4       0.74945    0.52067    0.25055   1.00
C4       0.75055    0.47933    0.24945   1.00
C3       0.72199    0.54244    0.22828   1.00
C3       0.72828    0.45756    0.22199   1.00
C4       0.77648    0.54150    0.27414   1.00
C4       0.77414    0.45850    0.27648   1.00
C2       0.74957    0.60352    0.24954   1.00
C2       0.74954    0.39648    0.24957   1.00
C3       0.72245    0.58310    0.22764   1.00
C3       0.72764    0.41690    0.22245   1.00
C3       0.77595    0.58306    0.27297   1.00
C3       0.77297    0.41694    0.27595   1.00
H1       0.69904    0.52888    0.21167   1.00
H1       0.71167    0.47112    0.19904   1.00
C5       0.80287    0.52065    0.29865   1.00
C5       0.79865    0.47935    0.30287   1.00
H1       0.70138    0.59886    0.21014   1.00
H1       0.71014    0.40114    0.20138   1.00
H1       0.79538    0.60053    0.29048   1.00
H1       0.79048    0.39947    0.29538   1.00
C6       0.83622    0.54234    0.31888   1.00
C6       0.81888    0.45766    0.33622   1.00
H2       0.86256    0.52358    0.32069   1.00
H2       0.84671    0.56737    0.30145   1.00
C6       0.82371    0.55724    0.35929   1.00
H2       0.82069    0.47642    0.36256   1.00
H2       0.80145    0.43263    0.34671   1.00
C6       0.85929    0.44276    0.32371   1.00
H2       0.81378    0.53274    0.37812   1.00
C6       0.85745    0.57832    0.37931   1.00
H2       0.79856    0.57760    0.35627   1.00
C6       0.87931    0.42168    0.35745   1.00
H2       0.85627    0.42240    0.29856   1.00
H2       0.87812    0.46726    0.31378   1.00
H2       0.88257    0.55822    0.38337   1.00
H2       0.86702    0.60380    0.36169   1.00
H2       0.84803    0.58898    0.40843   1.00
H2       0.88337    0.44178    0.38257   1.00
H2       0.86169    0.39620    0.36702   1.00
H2       0.90843    0.41102    0.34803   1.00
C4       0.47933    0.25055    0.25055   1.00
C4       0.52067    0.24945    0.24945   1.00
C3       0.45756    0.22828    0.27801   1.00
C3       0.54244    0.22199    0.27172   1.00
C4       0.45850    0.27414    0.22352   1.00
C4       0.54150    0.27648    0.22586   1.00
C2       0.39648    0.24954    0.25043   1.00
C2       0.60352    0.24957    0.25046   1.00
C3       0.41690    0.22764    0.27755   1.00
C3       0.58310    0.22245    0.27236   1.00
C3       0.41694    0.27297    0.22405   1.00
C3       0.58306    0.27595    0.22703   1.00
H1       0.47112    0.21167    0.30096   1.00
H1       0.52888    0.19904    0.28833   1.00
C5       0.47935    0.29865    0.19713   1.00
C5       0.52065    0.30287    0.20135   1.00
H1       0.40114    0.21014    0.29862   1.00
H1       0.59886    0.20138    0.28986   1.00
H1       0.39947    0.29048    0.20462   1.00
H1       0.60053    0.29538    0.20952   1.00
C6       0.45766    0.31888    0.16378   1.00
C6       0.54234    0.33622    0.18112   1.00
H2       0.47642    0.32069    0.13744   1.00
H2       0.43263    0.30145    0.15329   1.00
C6       0.44276    0.35929    0.17629   1.00
H2       0.52358    0.36256    0.17931   1.00
H2       0.56737    0.34671    0.19855   1.00
C6       0.55724    0.32371    0.14071   1.00
H2       0.46726    0.37812    0.18622   1.00
C6       0.42168    0.37931    0.14255   1.00
H2       0.42240    0.35627    0.20144   1.00
C6       0.57832    0.35745    0.12069   1.00
H2       0.57760    0.29856    0.14373   1.00
H2       0.53274    0.31378    0.12188   1.00
H2       0.44178    0.38337    0.11743   1.00
H2       0.39620    0.36169    0.13298   1.00
H2       0.41102    0.40843    0.15197   1.00
H2       0.55822    0.38257    0.11663   1.00
H2       0.60380    0.36702    0.13831   1.00
H2       0.58898    0.34803    0.09157   1.00
C4       1.02067    0.25055    0.24945   1.00
C4       0.97933    0.24945    0.25055   1.00
C3       1.04244    0.22828    0.22199   1.00
C3       0.95756    0.22199    0.22828   1.00
C4       1.04150    0.27414    0.27648   1.00
C4       0.95850    0.27648    0.27414   1.00
C2       1.10352    0.24954    0.24957   1.00
C2       0.89648    0.24957    0.24954   1.00
C3       1.08310    0.22764    0.22245   1.00
C3       0.91690    0.22245    0.22764   1.00
C3       1.08306    0.27297    0.27595   1.00
C3       0.91694    0.27595    0.27297   1.00
H1       1.02888    0.21167    0.19904   1.00
H1       0.97112    0.19904    0.21167   1.00
C5       1.02065    0.29865    0.30287   1.00
C5       0.97935    0.30287    0.29865   1.00
H1       1.09886    0.21014    0.20138   1.00
H1       0.90114    0.20138    0.21014   1.00
H1       1.10053    0.29048    0.29538   1.00
H1       0.89947    0.29538    0.29048   1.00
C6       1.04234    0.31888    0.33622   1.00
C6       0.95766    0.33622    0.31888   1.00
H2       1.02358    0.32069    0.36256   1.00
H2       1.06737    0.30145    0.34671   1.00
C6       1.05724    0.35929    0.32371   1.00
H2       0.97642    0.36256    0.32069   1.00
H2       0.93263    0.34671    0.30145   1.00
C6       0.94276    0.32371    0.35929   1.00
H2       1.03274    0.37812    0.31378   1.00
C6       1.07832    0.37931    0.35745   1.00
H2       1.07760    0.35627    0.29856   1.00
C6       0.92168    0.35745    0.37931   1.00
H2       0.92240    0.29856    0.35627   1.00
H2       0.96726    0.31378    0.37812   1.00
H2       1.05822    0.38337    0.38257   1.00
H2       1.10380    0.36169    0.36702   1.00
H2       1.08898    0.40843    0.34803   1.00
H2       0.94178    0.38257    0.38337   1.00
H2       0.89620    0.36702    0.36169   1.00
H2       0.91102    0.34803    0.40843   1.00
C4       0.75055    -0.02067   0.25055   1.00
C4       0.74945    0.02067    0.24945   1.00
C3       0.77801    -0.04244   0.22828   1.00
C3       0.77172    0.04244    0.22199   1.00
C4       0.72352    -0.04150   0.27414   1.00
C4       0.72586    0.04150    0.27648   1.00
C2       0.75043    -0.10352   0.24954   1.00
C2       0.75046    0.10352    0.24957   1.00
C3       0.77755    -0.08310   0.22764   1.00
C3       0.77236    0.08310    0.22245   1.00
C3       0.72405    -0.08306   0.27297   1.00
C3       0.72703    0.08306    0.27595   1.00
H1       0.80096    -0.02888   0.21167   1.00
H1       0.78833    0.02888    0.19904   1.00
C5       0.69713    -0.02065   0.29865   1.00
C5       0.70135    0.02065    0.30287   1.00
H1       0.79862    -0.09886   0.21014   1.00
H1       0.78986    0.09886    0.20138   1.00
H1       0.70462    -0.10053   0.29048   1.00
H1       0.70952    0.10053    0.29538   1.00
C6       0.66378    -0.04234   0.31888   1.00
C6       0.68112    0.04234    0.33622   1.00
H2       0.63744    -0.02358   0.32069   1.00
H2       0.65329    -0.06737   0.30145   1.00
C6       0.67629    -0.05724   0.35929   1.00
H2       0.67931    0.02358    0.36256   1.00
H2       0.69855    0.06737    0.34671   1.00
C6       0.64071    0.05724    0.32371   1.00
H2       0.68622    -0.03274   0.37812   1.00
C6       0.64255    -0.07832   0.37931   1.00
H2       0.70144    -0.07760   0.35627   1.00
C6       0.62069    0.07832    0.35745   1.00
H2       0.64373    0.07760    0.29856   1.00
H2       0.62188    0.03274    0.31378   1.00
H2       0.61743    -0.05822   0.38337   1.00
H2       0.63298    -0.10380   0.36169   1.00
H2       0.65197    -0.08898   0.40843   1.00
H2       0.61663    0.05822    0.38257   1.00
H2       0.63831    0.10380    0.36702   1.00
H2       0.59157    0.08898    0.34803   1.00
C4       0.75055    0.25055    -0.02067   1.00
C4       0.74945    0.24945    0.02067   1.00
C3       0.72828    0.27801    -0.04244   1.00
C3       0.72199    0.27172    0.04244   1.00
C4       0.77414    0.22352    -0.04150   1.00
C4       0.77648    0.22586    0.04150   1.00
C2       0.74954    0.25043    -0.10352   1.00
C2       0.74957    0.25046    0.10352   1.00
C3       0.72764    0.27755    -0.08310   1.00
C3       0.72245    0.27236    0.08310   1.00
C3       0.77297    0.22405    -0.08306   1.00
C3       0.77595    0.22703    0.08306   1.00
H1       0.71167    0.30096    -0.02888   1.00
H1       0.69904    0.28833    0.02888   1.00
C5       0.79865    0.19713    -0.02065   1.00
C5       0.80287    0.20135    0.02065   1.00
H1       0.71014    0.29862    -0.09886   1.00
H1       0.70138    0.28986    0.09886   1.00
H1       0.79048    0.20462    -0.10053   1.00
H1       0.79538    0.20952    0.10053   1.00
C6       0.81888    0.16378    -0.04234   1.00
C6       0.83622    0.18112    0.04234   1.00
H2       0.82069    0.13744    -0.02358   1.00
H2       0.80145    0.15329    -0.06737   1.00
C6       0.85929    0.17629    -0.05724   1.00
H2       0.86256    0.17931    0.02358   1.00
H2       0.84671    0.19855    0.06737   1.00
C6       0.82371    0.14071    0.05724   1.00
H2       0.87812    0.18622    -0.03274   1.00
C6       0.87931    0.14255    -0.07832   1.00
H2       0.85627    0.20144    -0.07760   1.00
C6       0.85745    0.12069    0.07832   1.00
H2       0.79856    0.14373    0.07760   1.00
H2       0.81378    0.12188    0.03274   1.00
H2       0.88337    0.11743    -0.05822   1.00
H2       0.86169    0.13298    -0.10380   1.00
H2       0.90843    0.15197    -0.08898   1.00
H2       0.88257    0.11663    0.05822   1.00
H2       0.86702    0.13831    0.10380   1.00
H2       0.84803    0.09157    0.08898   1.00
C4       0.91555    0.91445    1.18567   1.00
C4       0.91445    0.91555    1.14433   1.00
C3       0.89328    0.88699    1.20744   1.00
C3       0.88699    0.89328    1.12256   1.00
C4       0.93914    0.94148    1.20650   1.00
C4       0.94148    0.93914    1.12350   1.00
C2       0.91454    0.91457    1.26852   1.00
C2       0.91457    0.91454    1.06148   1.00
C3       0.89264    0.88745    1.24810   1.00
C3       0.88745    0.89264    1.08190   1.00
C3       0.93797    0.94095    1.24806   1.00
C3       0.94095    0.93797    1.08194   1.00
H1       0.87667    0.86404    1.19388   1.00
H1       0.86404    0.87667    1.13612   1.00
C5       0.96365    0.96787    1.18565   1.00
C5       0.96787    0.96365    1.14435   1.00
H1       0.87514    0.86638    1.26386   1.00
H1       0.86638    0.87514    1.06614   1.00
H1       0.95548    0.96038    1.26553   1.00
H1       0.96038    0.95548    1.06447   1.00
C6       0.98388    1.00122    1.20734   1.00
C6       1.00122    0.98388    1.12266   1.00
H2       0.98569    1.02756    1.18858   1.00
H2       0.96645    1.01171    1.23237   1.00
C6       1.02429    0.98871    1.22224   1.00
H2       1.02756    0.98569    1.14142   1.00
H2       1.01171    0.96645    1.09763   1.00
C6       0.98871    1.02429    1.10776   1.00
H2       1.04312    0.97878    1.19774   1.00
C6       1.04431    1.02245    1.24332   1.00
H2       1.02127    0.96356    1.24260   1.00
C6       1.02245    1.04431    1.08668   1.00
H2       0.96356    1.02127    1.08740   1.00
H2       0.97878    1.04312    1.13226   1.00
H2       1.04837    1.04757    1.22322   1.00
H2       1.02669    1.03202    1.26880   1.00
H2       1.07343    1.01303    1.25398   1.00
H2       1.04757    1.04837    1.10678   1.00
H2       1.03202    1.02669    1.06120   1.00
H2       1.01303    1.07343    1.07602   1.00
C4       0.91445    1.18567    0.91555   1.00
C4       0.91555    1.14433    0.91445   1.00
C3       0.88699    1.20744    0.89328   1.00
C3       0.89328    1.12256    0.88699   1.00
C4       0.94148    1.20650    0.93914   1.00
C4       0.93914    1.12350    0.94148   1.00
C2       0.91457    1.26852    0.91454   1.00
C2       0.91454    1.06148    0.91457   1.00
C3       0.88745    1.24810    0.89264   1.00
C3       0.89264    1.08190    0.88745   1.00
C3       0.94095    1.24806    0.93797   1.00
C3       0.93797    1.08194    0.94095   1.00
H1       0.86404    1.19388    0.87667   1.00
H1       0.87667    1.13612    0.86404   1.00
C5       0.96787    1.18565    0.96365   1.00
C5       0.96365    1.14435    0.96787   1.00
H1       0.86638    1.26386    0.87514   1.00
H1       0.87514    1.06614    0.86638   1.00
H1       0.96038    1.26553    0.95548   1.00
H1       0.95548    1.06447    0.96038   1.00
C6       1.00122    1.20734    0.98388   1.00
C6       0.98388    1.12266    1.00122   1.00
H2       1.02756    1.18858    0.98569   1.00
H2       1.01171    1.23237    0.96645   1.00
C6       0.98871    1.22224    1.02429   1.00
H2       0.98569    1.14142    1.02756   1.00
H2       0.96645    1.09763    1.01171   1.00
C6       1.02429    1.10776    0.98871   1.00
H2       0.97878    1.19774    1.04312   1.00
C6       1.02245    1.24332    1.04431   1.00
H2       0.96356    1.24260    1.02127   1.00
C6       1.04431    1.08668    1.02245   1.00
H2       1.02127    1.08740    0.96356   1.00
H2       1.04312    1.13226    0.97878   1.00
H2       1.04757    1.22322    1.04837   1.00
H2       1.03202    1.26880    1.02669   1.00
H2       1.01303    1.25398    1.07343   1.00
H2       1.04837    1.10678    1.04757   1.00
H2       1.02669    1.06120    1.03202   1.00
H2       1.07343    1.07602    1.01303   1.00
C4       0.64433    0.91555    0.91555   1.00
C4       0.68567    0.91445    0.91445   1.00
C3       0.62256    0.89328    0.94301   1.00
C3       0.70744    0.88699    0.93672   1.00
C4       0.62350    0.93914    0.88852   1.00
C4       0.70650    0.94148    0.89086   1.00
C2       0.56148    0.91454    0.91543   1.00
C2       0.76852    0.91457    0.91546   1.00
C3       0.58190    0.89264    0.94255   1.00
C3       0.74810    0.88745    0.93736   1.00
C3       0.58194    0.93797    0.88905   1.00
C3       0.74806    0.94095    0.89203   1.00
H1       0.63612    0.87667    0.96596   1.00
H1       0.69388    0.86404    0.95333   1.00
C5       0.64435    0.96365    0.86213   1.00
C5       0.68565    0.96787    0.86635   1.00
H1       0.56614    0.87514    0.96362   1.00
H1       0.76386    0.86638    0.95486   1.00
H1       0.56447    0.95548    0.86962   1.00
H1       0.76553    0.96038    0.87452   1.00
C6       0.62266    0.98388    0.82878   1.00
C6       0.70734    1.00122    0.84612   1.00
H2       0.64142    0.98569    0.80244   1.00
H2       0.59763    0.96645    0.81829   1.00
C6       0.60776    1.02429    0.84129   1.00
H2       0.68858    1.02756    0.84431   1.00
H2       0.73237    1.01171    0.86355   1.00
C6       0.72224    0.98871    0.80571   1.00
H2       0.63226    1.04312    0.85122   1.00
C6       0.58668    1.04431    0.80755   1.00
H2       0.58740    1.02127    0.86644   1.00
C6       0.74332    1.02245    0.78569   1.00
H2       0.74260    0.96356    0.80873   1.00
H2       0.69774    0.97878    0.78688   1.00
H2       0.60678    1.04837    0.78243   1.00
H2       0.56120    1.02669    0.79798   1.00
H2       0.57602    1.07343    0.81697   1.00
H2       0.72322    1.04757    0.78163   1.00
H2       0.76880    1.03202    0.80331   1.00
H2       0.75398    1.01303    0.75657   1.00
C4       1.18567    0.91555    0.91445   1.00
C4       1.14433    0.91445    0.91555   1.00
C3       1.20744    0.89328    0.88699   1.00
C3       1.12256    0.88699    0.89328   1.00
C4       1.20650    0.93914    0.94148   1.00
C4       1.12350    0.94148    0.93914   1.00
C2       1.26852    0.91454    0.91457   1.00
C2       1.06148    0.91457    0.91454   1.00
C3       1.24810    0.89264    0.88745   1.00
C3       1.08190    0.88745    0.89264   1.00
C3       1.24806    0.93797    0.94095   1.00
C3       1.08194    0.94095    0.93797   1.00
H1       1.19388    0.87667    0.86404   1.00
H1       1.13612    0.86404    0.87667   1.00
C5       1.18565    0.96365    0.96787   1.00
C5       1.14435    0.96787    0.96365   1.00
H1       1.26386    0.87514    0.86638   1.00
H1       1.06614    0.86638    0.87514   1.00
H1       1.26553    0.95548    0.96038   1.00
H1       1.06447    0.96038    0.95548   1.00
C6       1.20734    0.98388    1.00122   1.00
C6       1.12266    1.00122    0.98388   1.00
H2       1.18858    0.98569    1.02756   1.00
H2       1.23237    0.96645    1.01171   1.00
C6       1.22224    1.02429    0.98871   1.00
H2       1.14142    1.02756    0.98569   1.00
H2       1.09763    1.01171    0.96645   1.00
C6       1.10776    0.98871    1.02429   1.00
H2       1.19774    1.04312    0.97878   1.00
C6       1.24332    1.04431    1.02245   1.00
H2       1.24260    1.02127    0.96356   1.00
C6       1.08668    1.02245    1.04431   1.00
H2       1.08740    0.96356    1.02127   1.00
H2       1.13226    0.97878    1.04312   1.00
H2       1.22322    1.04837    1.04757   1.00
H2       1.26880    1.02669    1.03202   1.00
H2       1.25398    1.07343    1.01303   1.00
H2       1.10678    1.04757    1.04837   1.00
H2       1.06120    1.03202    1.02669   1.00
H2       1.07602    1.01303    1.07343   1.00
C4       0.91555    0.64433    0.91555   1.00
C4       0.91445    0.68567    0.91445   1.00
C3       0.94301    0.62256    0.89328   1.00
C3       0.93672    0.70744    0.88699   1.00
C4       0.88852    0.62350    0.93914   1.00
C4       0.89086    0.70650    0.94148   1.00
C2       0.91543    0.56148    0.91454   1.00
C2       0.91546    0.76852    0.91457   1.00
C3       0.94255    0.58190    0.89264   1.00
C3       0.93736    0.74810    0.88745   1.00
C3       0.88905    0.58194    0.93797   1.00
C3       0.89203    0.74806    0.94095   1.00
H1       0.96596    0.63612    0.87667   1.00
H1       0.95333    0.69388    0.86404   1.00
C5       0.86213    0.64435    0.96365   1.00
C5       0.86635    0.68565    0.96787   1.00
H1       0.96362    0.56614    0.87514   1.00
H1       0.95486    0.76386    0.86638   1.00
H1       0.86962    0.56447    0.95548   1.00
H1       0.87452    0.76553    0.96038   1.00
C6       0.82878    0.62266    0.98388   1.00
C6       0.84612    0.70734    1.00122   1.00
H2       0.80244    0.64142    0.98569   1.00
H2       0.81829    0.59763    0.96645   1.00
C6       0.84129    0.60776    1.02429   1.00
H2       0.84431    0.68858    1.02756   1.00
H2       0.86355    0.73237    1.01171   1.00
C6       0.80571    0.72224    0.98871   1.00
H2       0.85122    0.63226    1.04312   1.00
C6       0.80755    0.58668    1.04431   1.00
H2       0.86644    0.58740    1.02127   1.00
C6       0.78569    0.74332    1.02245   1.00
H2       0.80873    0.74260    0.96356   1.00
H2       0.78688    0.69774    0.97878   1.00
H2       0.78243    0.60678    1.04837   1.00
H2       0.79798    0.56120    1.02669   1.00
H2       0.81697    0.57602    1.07343   1.00
H2       0.78163    0.72322    1.04757   1.00
H2       0.80331    0.76880    1.03202   1.00
H2       0.75657    0.75398    1.01303   1.00
C4       0.91555    0.91555    0.64433   1.00
C4       0.91445    0.91445    0.68567   1.00
C3       0.89328    0.94301    0.62256   1.00
C3       0.88699    0.93672    0.70744   1.00
C4       0.93914    0.88852    0.62350   1.00
C4       0.94148    0.89086    0.70650   1.00
C2       0.91454    0.91543    0.56148   1.00
C2       0.91457    0.91546    0.76852   1.00
C3       0.89264    0.94255    0.58190   1.00
C3       0.88745    0.93736    0.74810   1.00
C3       0.93797    0.88905    0.58194   1.00
C3       0.94095    0.89203    0.74806   1.00
H1       0.87667    0.96596    0.63612   1.00
H1       0.86404    0.95333    0.69388   1.00
C5       0.96365    0.86213    0.64435   1.00
C5       0.96787    0.86635    0.68565   1.00
H1       0.87514    0.96362    0.56614   1.00
H1       0.86638    0.95486    0.76386   1.00
H1       0.95548    0.86962    0.56447   1.00
H1       0.96038    0.87452    0.76553   1.00
C6       0.98388    0.82878    0.62266   1.00
C6       1.00122    0.84612    0.70734   1.00
H2       0.98569    0.80244    0.64142   1.00
H2       0.96645    0.81829    0.59763   1.00
C6       1.02429    0.84129    0.60776   1.00
H2       1.02756    0.84431    0.68858   1.00
H2       1.01171    0.86355    0.73237   1.00
C6       0.98871    0.80571    0.72224   1.00
H2       1.04312    0.85122    0.63226   1.00
C6       1.04431    0.80755    0.58668   1.00
H2       1.02127    0.86644    0.58740   1.00
C6       1.02245    0.78569    0.74332   1.00
H2       0.96356    0.80873    0.74260   1.00
H2       0.97878    0.78688    0.69774   1.00
H2       1.04837    0.78243    0.60678   1.00
H2       1.02669    0.79798    0.56120   1.00
H2       1.07343    0.81697    0.57602   1.00
H2       1.04757    0.78163    0.72322   1.00
H2       1.03202    0.80331    0.76880   1.00
H2       1.01303    0.75657    0.75398   1.00
C4       0.41555    0.41445    1.18567   1.00
C4       0.41445    0.41555    1.14433   1.00
C3       0.39328    0.38699    1.20744   1.00
C3       0.38699    0.39328    1.12256   1.00
C4       0.43914    0.44148    1.20650   1.00
C4       0.44148    0.43914    1.12350   1.00
C2       0.41454    0.41457    1.26852   1.00
C2       0.41457    0.41454    1.06148   1.00
C3       0.39264    0.38745    1.24810   1.00
C3       0.38745    0.39264    1.08190   1.00
C3       0.43797    0.44095    1.24806   1.00
C3       0.44095    0.43797    1.08194   1.00
H1       0.37667    0.36404    1.19388   1.00
H1       0.36404    0.37667    1.13612   1.00
C5       0.46365    0.46787    1.18565   1.00
C5       0.46787    0.46365    1.14435   1.00
H1       0.37514    0.36638    1.26386   1.00
H1       0.36638    0.37514    1.06614   1.00
H1       0.45548    0.46038    1.26553   1.00
H1       0.46038    0.45548    1.06447   1.00
C6       0.48388    0.50122    1.20734   1.00
C6       0.50122    0.48388    1.12266   1.00
H2       0.48569    0.52756    1.18858   1.00
H2       0.46645    0.51171    1.23237   1.00
C6       0.52429    0.48871    1.22224   1.00
H2       0.52756    0.48569    1.14142   1.00
H2       0.51171    0.46645    1.09763   1.00
C6       0.48871    0.52429    1.10776   1.00
H2       0.54312    0.47878    1.19774   1.00
C6       0.54431    0.52245    1.24332   1.00
H2       0.52127    0.46356    1.24260   1.00
C6       0.52245    0.54431    1.08668   1.00
H2       0.46356    0.52127    1.08740   1.00
H2       0.47878    0.54312    1.13226   1.00
H2       0.54837    0.54757    1.22322   1.00
H2       0.52669    0.53202    1.26880   1.00
H2       0.57343    0.51303    1.25398   1.00
H2       0.54757    0.54837    1.10678   1.00
H2       0.53202    0.52669    1.06120   1.00
H2       0.51303    0.57343    1.07602   1.00
C4       0.41445    0.68567    0.91555   1.00
C4       0.41555    0.64433    0.91445   1.00
C3       0.38699    0.70744    0.89328   1.00
C3       0.39328    0.62256    0.88699   1.00
C4       0.44148    0.70650    0.93914   1.00
C4       0.43914    0.62350    0.94148   1.00
C2       0.41457    0.76852    0.91454   1.00
C2       0.41454    0.56148    0.91457   1.00
C3       0.38745    0.74810    0.89264   1.00
C3       0.39264    0.58190    0.88745   1.00
C3       0.44095    0.74806    0.93797   1.00
C3       0.43797    0.58194    0.94095   1.00
H1       0.36404    0.69388    0.87667   1.00
H1       0.37667    0.63612    0.86404   1.00
C5       0.46787    0.68565    0.96365   1.00
C5       0.46365    0.64435    0.96787   1.00
H1       0.36638    0.76386    0.87514   1.00
H1       0.37514    0.56614    0.86638   1.00
H1       0.46038    0.76553    0.95548   1.00
H1       0.45548    0.56447    0.96038   1.00
C6       0.50122    0.70734    0.98388   1.00
C6       0.48388    0.62266    1.00122   1.00
H2       0.52756    0.68858    0.98569   1.00
H2       0.51171    0.73237    0.96645   1.00
C6       0.48871    0.72224    1.02429   1.00
H2       0.48569    0.64142    1.02756   1.00
H2       0.46645    0.59763    1.01171   1.00
C6       0.52429    0.60776    0.98871   1.00
H2       0.47878    0.69774    1.04312   1.00
C6       0.52245    0.74332    1.04431   1.00
H2       0.46356    0.74260    1.02127   1.00
C6       0.54431    0.58668    1.02245   1.00
H2       0.52127    0.58740    0.96356   1.00
H2       0.54312    0.63226    0.97878   1.00
H2       0.54757    0.72322    1.04837   1.00
H2       0.53202    0.76880    1.02669   1.00
H2       0.51303    0.75398    1.07343   1.00
H2       0.54837    0.60678    1.04757   1.00
H2       0.52669    0.56120    1.03202   1.00
H2       0.57343    0.57602    1.01303   1.00
C4       0.14433    0.41555    0.91555   1.00
C4       0.18567    0.41445    0.91445   1.00
C3       0.12256    0.39328    0.94301   1.00
C3       0.20744    0.38699    0.93672   1.00
C4       0.12350    0.43914    0.88852   1.00
C4       0.20650    0.44148    0.89086   1.00
C2       0.06148    0.41454    0.91543   1.00
C2       0.26852    0.41457    0.91546   1.00
C3       0.08190    0.39264    0.94255   1.00
C3       0.24810    0.38745    0.93736   1.00
C3       0.08194    0.43797    0.88905   1.00
C3       0.24806    0.44095    0.89203   1.00
H1       0.13612    0.37667    0.96596   1.00
H1       0.19388    0.36404    0.95333   1.00
C5       0.14435    0.46365    0.86213   1.00
C5       0.18565    0.46787    0.86635   1.00
H1       0.06614    0.37514    0.96362   1.00
H1       0.26386    0.36638    0.95486   1.00
H1       0.06447    0.45548    0.86962   1.00
H1       0.26553    0.46038    0.87452   1.00
C6       0.12266    0.48388    0.82878   1.00
C6       0.20734    0.50122    0.84612   1.00
H2       0.14142    0.48569    0.80244   1.00
H2       0.09763    0.46645    0.81829   1.00
C6       0.10776    0.52429    0.84129   1.00
H2       0.18858    0.52756    0.84431   1.00
H2       0.23237    0.51171    0.86355   1.00
C6       0.22224    0.48871    0.80571   1.00
H2       0.13226    0.54312    0.85122   1.00
C6       0.08668    0.54431    0.80755   1.00
H2       0.08740    0.52127    0.86644   1.00
C6       0.24332    0.52245    0.78569   1.00
H2       0.24260    0.46356    0.80873   1.00
H2       0.19774    0.47878    0.78688   1.00
H2       0.10678    0.54837    0.78243   1.00
H2       0.06120    0.52669    0.79798   1.00
H2       0.07602    0.57343    0.81697   1.00
H2       0.22322    0.54757    0.78163   1.00
H2       0.26880    0.53202    0.80331   1.00
H2       0.25398    0.51303    0.75657   1.00
C4       0.68567    0.41555    0.91445   1.00
C4       0.64433    0.41445    0.91555   1.00
C3       0.70744    0.39328    0.88699   1.00
C3       0.62256    0.38699    0.89328   1.00
C4       0.70650    0.43914    0.94148   1.00
C4       0.62350    0.44148    0.93914   1.00
C2       0.76852    0.41454    0.91457   1.00
C2       0.56148    0.41457    0.91454   1.00
C3       0.74810    0.39264    0.88745   1.00
C3       0.58190    0.38745    0.89264   1.00
C3       0.74806    0.43797    0.94095   1.00
C3       0.58194    0.44095    0.93797   1.00
H1       0.69388    0.37667    0.86404   1.00
H1       0.63612    0.36404    0.87667   1.00
C5       0.68565    0.46365    0.96787   1.00
C5       0.64435    0.46787    0.96365   1.00
H1       0.76386    0.37514    0.86638   1.00
H1       0.56614    0.36638    0.87514   1.00
H1       0.76553    0.45548    0.96038   1.00
H1       0.56447    0.46038    0.95548   1.00
C6       0.70734    0.48388    1.00122   1.00
C6       0.62266    0.50122    0.98388   1.00
H2       0.68858    0.48569    1.02756   1.00
H2       0.73237    0.46645    1.01171   1.00
C6       0.72224    0.52429    0.98871   1.00
H2       0.64142    0.52756    0.98569   1.00
H2       0.59763    0.51171    0.96645   1.00
C6       0.60776    0.48871    1.02429   1.00
H2       0.69774    0.54312    0.97878   1.00
C6       0.74332    0.54431    1.02245   1.00
H2       0.74260    0.52127    0.96356   1.00
C6       0.58668    0.52245    1.04431   1.00
H2       0.58740    0.46356    1.02127   1.00
H2       0.63226    0.47878    1.04312   1.00
H2       0.72322    0.54837    1.04757   1.00
H2       0.76880    0.52669    1.03202   1.00
H2       0.75398    0.57343    1.01303   1.00
H2       0.60678    0.54757    1.04837   1.00
H2       0.56120    0.53202    1.02669   1.00
H2       0.57602    0.51303    1.07343   1.00
C4       0.41555    0.14433    0.91555   1.00
C4       0.41445    0.18567    0.91445   1.00
C3       0.44301    0.12256    0.89328   1.00
C3       0.43672    0.20744    0.88699   1.00
C4       0.38852    0.12350    0.93914   1.00
C4       0.39086    0.20650    0.94148   1.00
C2       0.41543    0.06148    0.91454   1.00
C2       0.41546    0.26852    0.91457   1.00
C3       0.44255    0.08190    0.89264   1.00
C3       0.43736    0.24810    0.88745   1.00
C3       0.38905    0.08194    0.93797   1.00
C3       0.39203    0.24806    0.94095   1.00
H1       0.46596    0.13612    0.87667   1.00
H1       0.45333    0.19388    0.86404   1.00
C5       0.36213    0.14435    0.96365   1.00
C5       0.36635    0.18565    0.96787   1.00
H1       0.46362    0.06614    0.87514   1.00
H1       0.45486    0.26386    0.86638   1.00
H1       0.36962    0.06447    0.95548   1.00
H1       0.37452    0.26553    0.96038   1.00
C6       0.32878    0.12266    0.98388   1.00
C6       0.34612    0.20734    1.00122   1.00
H2       0.30244    0.14142    0.98569   1.00
H2       0.31829    0.09763    0.96645   1.00
C6       0.34129    0.10776    1.02429   1.00
H2       0.34431    0.18858    1.02756   1.00
H2       0.36355    0.23237    1.01171   1.00
C6       0.30571    0.22224    0.98871   1.00
H2       0.35122    0.13226    1.04312   1.00
C6       0.30755    0.08668    1.04431   1.00
H2       0.36644    0.08740    1.02127   1.00
C6       0.28569    0.24332    1.02245   1.00
H2       0.30873    0.24260    0.96356   1.00
H2       0.28688    0.19774    0.97878   1.00
H2       0.28243    0.10678    1.04837   1.00
H2       0.29798    0.06120    1.02669   1.00
H2       0.31697    0.07602    1.07343   1.00
H2       0.28163    0.22322    1.04757   1.00
H2       0.30331    0.26880    1.03202   1.00
H2       0.25657    0.25398    1.01303   1.00
C4       0.41555    0.41555    0.64433   1.00
C4       0.41445    0.41445    0.68567   1.00
C3       0.39328    0.44301    0.62256   1.00
C3       0.38699    0.43672    0.70744   1.00
C4       0.43914    0.38852    0.62350   1.00
C4       0.44148    0.39086    0.70650   1.00
C2       0.41454    0.41543    0.56148   1.00
C2       0.41457    0.41546    0.76852   1.00
C3       0.39264    0.44255    0.58190   1.00
C3       0.38745    0.43736    0.74810   1.00
C3       0.43797    0.38905    0.58194   1.00
C3       0.44095    0.39203    0.74806   1.00
H1       0.37667    0.46596    0.63612   1.00
H1       0.36404    0.45333    0.69388   1.00
C5       0.46365    0.36213    0.64435   1.00
C5       0.46787    0.36635    0.68565   1.00
H1       0.37514    0.46362    0.56614   1.00
H1       0.36638    0.45486    0.76386   1.00
H1       0.45548    0.36962    0.56447   1.00
H1       0.46038    0.37452    0.76553   1.00
C6       0.48388    0.32878    0.62266   1.00
C6       0.50122    0.34612    0.70734   1.00
H2       0.48569    0.30244    0.64142   1.00
H2       0.46645    0.31829    0.59763   1.00
C6       0.52429    0.34129    0.60776   1.00
H2       0.52756    0.34431    0.68858   1.00
H2       0.51171    0.36355    0.73237   1.00
C6       0.48871    0.30571    0.72224   1.00
H2       0.54312    0.35122    0.63226   1.00
C6       0.54431    0.30755    0.58668   1.00
H2       0.52127    0.36644    0.58740   1.00
C6       0.52245    0.28569    0.74332   1.00
H2       0.46356    0.30873    0.74260   1.00
H2       0.47878    0.28688    0.69774   1.00
H2       0.54837    0.28243    0.60678   1.00
H2       0.52669    0.29798    0.56120   1.00
H2       0.57343    0.31697    0.57602   1.00
H2       0.54757    0.28163    0.72322   1.00
H2       0.53202    0.30331    0.76880   1.00
H2       0.51303    0.25657    0.75398   1.00
C4       0.41555    0.91445    0.68567   1.00
C4       0.41445    0.91555    0.64433   1.00
C3       0.39328    0.88699    0.70744   1.00
C3       0.38699    0.89328    0.62256   1.00
C4       0.43914    0.94148    0.70650   1.00
C4       0.44148    0.93914    0.62350   1.00
C2       0.41454    0.91457    0.76852   1.00
C2       0.41457    0.91454    0.56148   1.00
C3       0.39264    0.88745    0.74810   1.00
C3       0.38745    0.89264    0.58190   1.00
C3       0.43797    0.94095    0.74806   1.00
C3       0.44095    0.93797    0.58194   1.00
H1       0.37667    0.86404    0.69388   1.00
H1       0.36404    0.87667    0.63612   1.00
C5       0.46365    0.96787    0.68565   1.00
C5       0.46787    0.96365    0.64435   1.00
H1       0.37514    0.86638    0.76386   1.00
H1       0.36638    0.87514    0.56614   1.00
H1       0.45548    0.96038    0.76553   1.00
H1       0.46038    0.95548    0.56447   1.00
C6       0.48388    1.00122    0.70734   1.00
C6       0.50122    0.98388    0.62266   1.00
H2       0.48569    1.02756    0.68858   1.00
H2       0.46645    1.01171    0.73237   1.00
C6       0.52429    0.98871    0.72224   1.00
H2       0.52756    0.98569    0.64142   1.00
H2       0.51171    0.96645    0.59763   1.00
C6       0.48871    1.02429    0.60776   1.00
H2       0.54312    0.97878    0.69774   1.00
C6       0.54431    1.02245    0.74332   1.00
H2       0.52127    0.96356    0.74260   1.00
C6       0.52245    1.04431    0.58668   1.00
H2       0.46356    1.02127    0.58740   1.00
H2       0.47878    1.04312    0.63226   1.00
H2       0.54837    1.04757    0.72322   1.00
H2       0.52669    1.03202    0.76880   1.00
H2       0.57343    1.01303    0.75398   1.00
H2       0.54757    1.04837    0.60678   1.00
H2       0.53202    1.02669    0.56120   1.00
H2       0.51303    1.07343    0.57602   1.00
C4       0.41445    1.18567    0.41555   1.00
C4       0.41555    1.14433    0.41445   1.00
C3       0.38699    1.20744    0.39328   1.00
C3       0.39328    1.12256    0.38699   1.00
C4       0.44148    1.20650    0.43914   1.00
C4       0.43914    1.12350    0.44148   1.00
C2       0.41457    1.26852    0.41454   1.00
C2       0.41454    1.06148    0.41457   1.00
C3       0.38745    1.24810    0.39264   1.00
C3       0.39264    1.08190    0.38745   1.00
C3       0.44095    1.24806    0.43797   1.00
C3       0.43797    1.08194    0.44095   1.00
H1       0.36404    1.19388    0.37667   1.00
H1       0.37667    1.13612    0.36404   1.00
C5       0.46787    1.18565    0.46365   1.00
C5       0.46365    1.14435    0.46787   1.00
H1       0.36638    1.26386    0.37514   1.00
H1       0.37514    1.06614    0.36638   1.00
H1       0.46038    1.26553    0.45548   1.00
H1       0.45548    1.06447    0.46038   1.00
C6       0.50122    1.20734    0.48388   1.00
C6       0.48388    1.12266    0.50122   1.00
H2       0.52756    1.18858    0.48569   1.00
H2       0.51171    1.23237    0.46645   1.00
C6       0.48871    1.22224    0.52429   1.00
H2       0.48569    1.14142    0.52756   1.00
H2       0.46645    1.09763    0.51171   1.00
C6       0.52429    1.10776    0.48871   1.00
H2       0.47878    1.19774    0.54312   1.00
C6       0.52245    1.24332    0.54431   1.00
H2       0.46356    1.24260    0.52127   1.00
C6       0.54431    1.08668    0.52245   1.00
H2       0.52127    1.08740    0.46356   1.00
H2       0.54312    1.13226    0.47878   1.00
H2       0.54757    1.22322    0.54837   1.00
H2       0.53202    1.26880    0.52669   1.00
H2       0.51303    1.25398    0.57343   1.00
H2       0.54837    1.10678    0.54757   1.00
H2       0.52669    1.06120    0.53202   1.00
H2       0.57343    1.07602    0.51303   1.00
C4       0.14433    0.91555    0.41555   1.00
C4       0.18567    0.91445    0.41445   1.00
C3       0.12256    0.89328    0.44301   1.00
C3       0.20744    0.88699    0.43672   1.00
C4       0.12350    0.93914    0.38852   1.00
C4       0.20650    0.94148    0.39086   1.00
C2       0.06148    0.91454    0.41543   1.00
C2       0.26852    0.91457    0.41546   1.00
C3       0.08190    0.89264    0.44255   1.00
C3       0.24810    0.88745    0.43736   1.00
C3       0.08194    0.93797    0.38905   1.00
C3       0.24806    0.94095    0.39203   1.00
H1       0.13612    0.87667    0.46596   1.00
H1       0.19388    0.86404    0.45333   1.00
C5       0.14435    0.96365    0.36213   1.00
C5       0.18565    0.96787    0.36635   1.00
H1       0.06614    0.87514    0.46362   1.00
H1       0.26386    0.86638    0.45486   1.00
H1       0.06447    0.95548    0.36962   1.00
H1       0.26553    0.96038    0.37452   1.00
C6       0.12266    0.98388    0.32878   1.00
C6       0.20734    1.00122    0.34612   1.00
H2       0.14142    0.98569    0.30244   1.00
H2       0.09763    0.96645    0.31829   1.00
C6       0.10776    1.02429    0.34129   1.00
H2       0.18858    1.02756    0.34431   1.00
H2       0.23237    1.01171    0.36355   1.00
C6       0.22224    0.98871    0.30571   1.00
H2       0.13226    1.04312    0.35122   1.00
C6       0.08668    1.04431    0.30755   1.00
H2       0.08740    1.02127    0.36644   1.00
C6       0.24332    1.02245    0.28569   1.00
H2       0.24260    0.96356    0.30873   1.00
H2       0.19774    0.97878    0.28688   1.00
H2       0.10678    1.04837    0.28243   1.00
H2       0.06120    1.02669    0.29798   1.00
H2       0.07602    1.07343    0.31697   1.00
H2       0.22322    1.04757    0.28163   1.00
H2       0.26880    1.03202    0.30331   1.00
H2       0.25398    1.01303    0.25657   1.00
C4       0.68567    0.91555    0.41445   1.00
C4       0.64433    0.91445    0.41555   1.00
C3       0.70744    0.89328    0.38699   1.00
C3       0.62256    0.88699    0.39328   1.00
C4       0.70650    0.93914    0.44148   1.00
C4       0.62350    0.94148    0.43914   1.00
C2       0.76852    0.91454    0.41457   1.00
C2       0.56148    0.91457    0.41454   1.00
C3       0.74810    0.89264    0.38745   1.00
C3       0.58190    0.88745    0.39264   1.00
C3       0.74806    0.93797    0.44095   1.00
C3       0.58194    0.94095    0.43797   1.00
H1       0.69388    0.87667    0.36404   1.00
H1       0.63612    0.86404    0.37667   1.00
C5       0.68565    0.96365    0.46787   1.00
C5       0.64435    0.96787    0.46365   1.00
H1       0.76386    0.87514    0.36638   1.00
H1       0.56614    0.86638    0.37514   1.00
H1       0.76553    0.95548    0.46038   1.00
H1       0.56447    0.96038    0.45548   1.00
C6       0.70734    0.98388    0.50122   1.00
C6       0.62266    1.00122    0.48388   1.00
H2       0.68858    0.98569    0.52756   1.00
H2       0.73237    0.96645    0.51171   1.00
C6       0.72224    1.02429    0.48871   1.00
H2       0.64142    1.02756    0.48569   1.00
H2       0.59763    1.01171    0.46645   1.00
C6       0.60776    0.98871    0.52429   1.00
H2       0.69774    1.04312    0.47878   1.00
C6       0.74332    1.04431    0.52245   1.00
H2       0.74260    1.02127    0.46356   1.00
C6       0.58668    1.02245    0.54431   1.00
H2       0.58740    0.96356    0.52127   1.00
H2       0.63226    0.97878    0.54312   1.00
H2       0.72322    1.04837    0.54757   1.00
H2       0.76880    1.02669    0.53202   1.00
H2       0.75398    1.07343    0.51303   1.00
H2       0.60678    1.04757    0.54837   1.00
H2       0.56120    1.03202    0.52669   1.00
H2       0.57602    1.01303    0.57343   1.00
C4       0.41555    0.64433    0.41555   1.00
C4       0.41445    0.68567    0.41445   1.00
C3       0.44301    0.62256    0.39328   1.00
C3       0.43672    0.70744    0.38699   1.00
C4       0.38852    0.62350    0.43914   1.00
C4       0.39086    0.70650    0.44148   1.00
C2       0.41543    0.56148    0.41454   1.00
C2       0.41546    0.76852    0.41457   1.00
C3       0.44255    0.58190    0.39264   1.00
C3       0.43736    0.74810    0.38745   1.00
C3       0.38905    0.58194    0.43797   1.00
C3       0.39203    0.74806    0.44095   1.00
H1       0.46596    0.63612    0.37667   1.00
H1       0.45333    0.69388    0.36404   1.00
C5       0.36213    0.64435    0.46365   1.00
C5       0.36635    0.68565    0.46787   1.00
H1       0.46362    0.56614    0.37514   1.00
H1       0.45486    0.76386    0.36638   1.00
H1       0.36962    0.56447    0.45548   1.00
H1       0.37452    0.76553    0.46038   1.00
C6       0.32878    0.62266    0.48388   1.00
C6       0.34612    0.70734    0.50122   1.00
H2       0.30244    0.64142    0.48569   1.00
H2       0.31829    0.59763    0.46645   1.00
C6       0.34129    0.60776    0.52429   1.00
H2       0.34431    0.68858    0.52756   1.00
H2       0.36355    0.73237    0.51171   1.00
C6       0.30571    0.72224    0.48871   1.00
H2       0.35122    0.63226    0.54312   1.00
C6       0.30755    0.58668    0.54431   1.00
H2       0.36644    0.58740    0.52127   1.00
C6       0.28569    0.74332    0.52245   1.00
H2       0.30873    0.74260    0.46356   1.00
H2       0.28688    0.69774    0.47878   1.00
H2       0.28243    0.60678    0.54837   1.00
H2       0.29798    0.56120    0.52669   1.00
H2       0.31697    0.57602    0.57343   1.00
H2       0.28163    0.72322    0.54757   1.00
H2       0.30331    0.76880    0.53202   1.00
H2       0.25657    0.75398    0.51303   1.00
C4       0.41555    0.91555    0.14433   1.00
C4       0.41445    0.91445    0.18567   1.00
C3       0.39328    0.94301    0.12256   1.00
C3       0.38699    0.93672    0.20744   1.00
C4       0.43914    0.88852    0.12350   1.00
C4       0.44148    0.89086    0.20650   1.00
C2       0.41454    0.91543    0.06148   1.00
C2       0.41457    0.91546    0.26852   1.00
C3       0.39264    0.94255    0.08190   1.00
C3       0.38745    0.93736    0.24810   1.00
C3       0.43797    0.88905    0.08194   1.00
C3       0.44095    0.89203    0.24806   1.00
H1       0.37667    0.96596    0.13612   1.00
H1       0.36404    0.95333    0.19388   1.00
C5       0.46365    0.86213    0.14435   1.00
C5       0.46787    0.86635    0.18565   1.00
H1       0.37514    0.96362    0.06614   1.00
H1       0.36638    0.95486    0.26386   1.00
H1       0.45548    0.86962    0.06447   1.00
H1       0.46038    0.87452    0.26553   1.00
C6       0.48388    0.82878    0.12266   1.00
C6       0.50122    0.84612    0.20734   1.00
H2       0.48569    0.80244    0.14142   1.00
H2       0.46645    0.81829    0.09763   1.00
C6       0.52429    0.84129    0.10776   1.00
H2       0.52756    0.84431    0.18858   1.00
H2       0.51171    0.86355    0.23237   1.00
C6       0.48871    0.80571    0.22224   1.00
H2       0.54312    0.85122    0.13226   1.00
C6       0.54431    0.80755    0.08668   1.00
H2       0.52127    0.86644    0.08740   1.00
C6       0.52245    0.78569    0.24332   1.00
H2       0.46356    0.80873    0.24260   1.00
H2       0.47878    0.78688    0.19774   1.00
H2       0.54837    0.78243    0.10678   1.00
H2       0.52669    0.79798    0.06120   1.00
H2       0.57343    0.81697    0.07602   1.00
H2       0.54757    0.78163    0.22322   1.00
H2       0.53202    0.80331    0.26880   1.00
H2       0.51303    0.75657    0.25398   1.00
C4       0.91555    0.41445    0.68567   1.00
C4       0.91445    0.41555    0.64433   1.00
C3       0.89328    0.38699    0.70744   1.00
C3       0.88699    0.39328    0.62256   1.00
C4       0.93914    0.44148    0.70650   1.00
C4       0.94148    0.43914    0.62350   1.00
C2       0.91454    0.41457    0.76852   1.00
C2       0.91457    0.41454    0.56148   1.00
C3       0.89264    0.38745    0.74810   1.00
C3       0.88745    0.39264    0.58190   1.00
C3       0.93797    0.44095    0.74806   1.00
C3       0.94095    0.43797    0.58194   1.00
H1       0.87667    0.36404    0.69388   1.00
H1       0.86404    0.37667    0.63612   1.00
C5       0.96365    0.46787    0.68565   1.00
C5       0.96787    0.46365    0.64435   1.00
H1       0.87514    0.36638    0.76386   1.00
H1       0.86638    0.37514    0.56614   1.00
H1       0.95548    0.46038    0.76553   1.00
H1       0.96038    0.45548    0.56447   1.00
C6       0.98388    0.50122    0.70734   1.00
C6       1.00122    0.48388    0.62266   1.00
H2       0.98569    0.52756    0.68858   1.00
H2       0.96645    0.51171    0.73237   1.00
C6       1.02429    0.48871    0.72224   1.00
H2       1.02756    0.48569    0.64142   1.00
H2       1.01171    0.46645    0.59763   1.00
C6       0.98871    0.52429    0.60776   1.00
H2       1.04312    0.47878    0.69774   1.00
C6       1.04431    0.52245    0.74332   1.00
H2       1.02127    0.46356    0.74260   1.00
C6       1.02245    0.54431    0.58668   1.00
H2       0.96356    0.52127    0.58740   1.00
H2       0.97878    0.54312    0.63226   1.00
H2       1.04837    0.54757    0.72322   1.00
H2       1.02669    0.53202    0.76880   1.00
H2       1.07343    0.51303    0.75398   1.00
H2       1.04757    0.54837    0.60678   1.00
H2       1.03202    0.52669    0.56120   1.00
H2       1.01303    0.57343    0.57602   1.00
C4       0.91445    0.68567    0.41555   1.00
C4       0.91555    0.64433    0.41445   1.00
C3       0.88699    0.70744    0.39328   1.00
C3       0.89328    0.62256    0.38699   1.00
C4       0.94148    0.70650    0.43914   1.00
C4       0.93914    0.62350    0.44148   1.00
C2       0.91457    0.76852    0.41454   1.00
C2       0.91454    0.56148    0.41457   1.00
C3       0.88745    0.74810    0.39264   1.00
C3       0.89264    0.58190    0.38745   1.00
C3       0.94095    0.74806    0.43797   1.00
C3       0.93797    0.58194    0.44095   1.00
H1       0.86404    0.69388    0.37667   1.00
H1       0.87667    0.63612    0.36404   1.00
C5       0.96787    0.68565    0.46365   1.00
C5       0.96365    0.64435    0.46787   1.00
H1       0.86638    0.76386    0.37514   1.00
H1       0.87514    0.56614    0.36638   1.00
H1       0.96038    0.76553    0.45548   1.00
H1       0.95548    0.56447    0.46038   1.00
C6       1.00122    0.70734    0.48388   1.00
C6       0.98388    0.62266    0.50122   1.00
H2       1.02756    0.68858    0.48569   1.00
H2       1.01171    0.73237    0.46645   1.00
C6       0.98871    0.72224    0.52429   1.00
H2       0.98569    0.64142    0.52756   1.00
H2       0.96645    0.59763    0.51171   1.00
C6       1.02429    0.60776    0.48871   1.00
H2       0.97878    0.69774    0.54312   1.00
C6       1.02245    0.74332    0.54431   1.00
H2       0.96356    0.74260    0.52127   1.00
C6       1.04431    0.58668    0.52245   1.00
H2       1.02127    0.58740    0.46356   1.00
H2       1.04312    0.63226    0.47878   1.00
H2       1.04757    0.72322    0.54837   1.00
H2       1.03202    0.76880    0.52669   1.00
H2       1.01303    0.75398    0.57343   1.00
H2       1.04837    0.60678    0.54757   1.00
H2       1.02669    0.56120    0.53202   1.00
H2       1.07343    0.57602    0.51303   1.00
C4       0.64433    0.41555    0.41555   1.00
C4       0.68567    0.41445    0.41445   1.00
C3       0.62256    0.39328    0.44301   1.00
C3       0.70744    0.38699    0.43672   1.00
C4       0.62350    0.43914    0.38852   1.00
C4       0.70650    0.44148    0.39086   1.00
C2       0.56148    0.41454    0.41543   1.00
C2       0.76852    0.41457    0.41546   1.00
C3       0.58190    0.39264    0.44255   1.00
C3       0.74810    0.38745    0.43736   1.00
C3       0.58194    0.43797    0.38905   1.00
C3       0.74806    0.44095    0.39203   1.00
H1       0.63612    0.37667    0.46596   1.00
H1       0.69388    0.36404    0.45333   1.00
C5       0.64435    0.46365    0.36213   1.00
C5       0.68565    0.46787    0.36635   1.00
H1       0.56614    0.37514    0.46362   1.00
H1       0.76386    0.36638    0.45486   1.00
H1       0.56447    0.45548    0.36962   1.00
H1       0.76553    0.46038    0.37452   1.00
C6       0.62266    0.48388    0.32878   1.00
C6       0.70734    0.50122    0.34612   1.00
H2       0.64142    0.48569    0.30244   1.00
H2       0.59763    0.46645    0.31829   1.00
C6       0.60776    0.52429    0.34129   1.00
H2       0.68858    0.52756    0.34431   1.00
H2       0.73237    0.51171    0.36355   1.00
C6       0.72224    0.48871    0.30571   1.00
H2       0.63226    0.54312    0.35122   1.00
C6       0.58668    0.54431    0.30755   1.00
H2       0.58740    0.52127    0.36644   1.00
C6       0.74332    0.52245    0.28569   1.00
H2       0.74260    0.46356    0.30873   1.00
H2       0.69774    0.47878    0.28688   1.00
H2       0.60678    0.54837    0.28243   1.00
H2       0.56120    0.52669    0.29798   1.00
H2       0.57602    0.57343    0.31697   1.00
H2       0.72322    0.54757    0.28163   1.00
H2       0.76880    0.53202    0.30331   1.00
H2       0.75398    0.51303    0.25657   1.00
C4       1.18567    0.41555    0.41445   1.00
C4       1.14433    0.41445    0.41555   1.00
C3       1.20744    0.39328    0.38699   1.00
C3       1.12256    0.38699    0.39328   1.00
C4       1.20650    0.43914    0.44148   1.00
C4       1.12350    0.44148    0.43914   1.00
C2       1.26852    0.41454    0.41457   1.00
C2       1.06148    0.41457    0.41454   1.00
C3       1.24810    0.39264    0.38745   1.00
C3       1.08190    0.38745    0.39264   1.00
C3       1.24806    0.43797    0.44095   1.00
C3       1.08194    0.44095    0.43797   1.00
H1       1.19388    0.37667    0.36404   1.00
H1       1.13612    0.36404    0.37667   1.00
C5       1.18565    0.46365    0.46787   1.00
C5       1.14435    0.46787    0.46365   1.00
H1       1.26386    0.37514    0.36638   1.00
H1       1.06614    0.36638    0.37514   1.00
H1       1.26553    0.45548    0.46038   1.00
H1       1.06447    0.46038    0.45548   1.00
C6       1.20734    0.48388    0.50122   1.00
C6       1.12266    0.50122    0.48388   1.00
H2       1.18858    0.48569    0.52756   1.00
H2       1.23237    0.46645    0.51171   1.00
C6       1.22224    0.52429    0.48871   1.00
H2       1.14142    0.52756    0.48569   1.00
H2       1.09763    0.51171    0.46645   1.00
C6       1.10776    0.48871    0.52429   1.00
H2       1.19774    0.54312    0.47878   1.00
C6       1.24332    0.54431    0.52245   1.00
H2       1.24260    0.52127    0.46356   1.00
C6       1.08668    0.52245    0.54431   1.00
H2       1.08740    0.46356    0.52127   1.00
H2       1.13226    0.47878    0.54312   1.00
H2       1.22322    0.54837    0.54757   1.00
H2       1.26880    0.52669    0.53202   1.00
H2       1.25398    0.57343    0.51303   1.00
H2       1.10678    0.54757    0.54837   1.00
H2       1.06120    0.53202    0.52669   1.00
H2       1.07602    0.51303    0.57343   1.00
C4       0.91555    0.14433    0.41555   1.00
C4       0.91445    0.18567    0.41445   1.00
C3       0.94301    0.12256    0.39328   1.00
C3       0.93672    0.20744    0.38699   1.00
C4       0.88852    0.12350    0.43914   1.00
C4       0.89086    0.20650    0.44148   1.00
C2       0.91543    0.06148    0.41454   1.00
C2       0.91546    0.26852    0.41457   1.00
C3       0.94255    0.08190    0.39264   1.00
C3       0.93736    0.24810    0.38745   1.00
C3       0.88905    0.08194    0.43797   1.00
C3       0.89203    0.24806    0.44095   1.00
H1       0.96596    0.13612    0.37667   1.00
H1       0.95333    0.19388    0.36404   1.00
C5       0.86213    0.14435    0.46365   1.00
C5       0.86635    0.18565    0.46787   1.00
H1       0.96362    0.06614    0.37514   1.00
H1       0.95486    0.26386    0.36638   1.00
H1       0.86962    0.06447    0.45548   1.00
H1       0.87452    0.26553    0.46038   1.00
C6       0.82878    0.12266    0.48388   1.00
C6       0.84612    0.20734    0.50122   1.00
H2       0.80244    0.14142    0.48569   1.00
H2       0.81829    0.09763    0.46645   1.00
C6       0.84129    0.10776    0.52429   1.00
H2       0.84431    0.18858    0.52756   1.00
H2       0.86355    0.23237    0.51171   1.00
C6       0.80571    0.22224    0.48871   1.00
H2       0.85122    0.13226    0.54312   1.00
C6       0.80755    0.08668    0.54431   1.00
H2       0.86644    0.08740    0.52127   1.00
C6       0.78569    0.24332    0.52245   1.00
H2       0.80873    0.24260    0.46356   1.00
H2       0.78688    0.19774    0.47878   1.00
H2       0.78243    0.10678    0.54837   1.00
H2       0.79798    0.06120    0.52669   1.00
H2       0.81697    0.07602    0.57343   1.00
H2       0.78163    0.22322    0.54757   1.00
H2       0.80331    0.26880    0.53202   1.00
H2       0.75657    0.25398    0.51303   1.00
C4       0.91555    0.41555    0.14433   1.00
C4       0.91445    0.41445    0.18567   1.00
C3       0.89328    0.44301    0.12256   1.00
C3       0.88699    0.43672    0.20744   1.00
C4       0.93914    0.38852    0.12350   1.00
C4       0.94148    0.39086    0.20650   1.00
C2       0.91454    0.41543    0.06148   1.00
C2       0.91457    0.41546    0.26852   1.00
C3       0.89264    0.44255    0.08190   1.00
C3       0.88745    0.43736    0.24810   1.00
C3       0.93797    0.38905    0.08194   1.00
C3       0.94095    0.39203    0.24806   1.00
H1       0.87667    0.46596    0.13612   1.00
H1       0.86404    0.45333    0.19388   1.00
C5       0.96365    0.36213    0.14435   1.00
C5       0.96787    0.36635    0.18565   1.00
H1       0.87514    0.46362    0.06614   1.00
H1       0.86638    0.45486    0.26386   1.00
H1       0.95548    0.36962    0.06447   1.00
H1       0.96038    0.37452    0.26553   1.00
C6       0.98388    0.32878    0.12266   1.00
C6       1.00122    0.34612    0.20734   1.00
H2       0.98569    0.30244    0.14142   1.00
H2       0.96645    0.31829    0.09763   1.00
C6       1.02429    0.34129    0.10776   1.00
H2       1.02756    0.34431    0.18858   1.00
H2       1.01171    0.36355    0.23237   1.00
C6       0.98871    0.30571    0.22224   1.00
H2       1.04312    0.35122    0.13226   1.00
C6       1.04431    0.30755    0.08668   1.00
H2       1.02127    0.36644    0.08740   1.00
C6       1.02245    0.28569    0.24332   1.00
H2       0.96356    0.30873    0.24260   1.00
H2       0.97878    0.28688    0.19774   1.00
H2       1.04837    0.28243    0.10678   1.00
H2       1.02669    0.29798    0.06120   1.00
H2       1.07343    0.31697    0.07602   1.00
H2       1.04757    0.28163    0.22322   1.00
H2       1.03202    0.30331    0.26880   1.00
H2       1.01303    0.25657    0.25398   1.00
