data_IRMOF10_interpen_symm_ligand4lp_label_i_2.

_audit_creation_method             'generated by an auxiliary program of Tobunporous'

_symmetry_space_group_name_H-M     'P 1'
_symmetry_Int_Tables_number        1
_symmetry_cell_setting             triclinic

_cell_length_a                    22.6523
_cell_length_b                    22.6523
_cell_length_c                    65.9502
_cell_angle_alpha                 90.0000
_cell_angle_beta                  90.0000
_cell_angle_gamma                 120.0000

loop_
_atom_site_label
_atom_site_fract_x
_atom_site_fract_y
_atom_site_fract_z
_atom_site_occupancy
O1       0.00000    -0.00000   0.62500   1.00
Zn1      0.00000    -0.00000   0.59589   1.00
Zn1      0.94848    1.04288    0.63392   1.00
Zn1      0.09439    0.05152    0.63392   1.00
Zn1      -0.04288   0.90561    0.63392   1.00
O2       0.93860    0.02610    0.58587   1.00
O2       0.08750    0.06140    0.58587   1.00
O2       -0.02610   0.91250    0.58587   1.00
O2       0.91305    0.07161    0.61181   1.00
O2       0.00462    0.12022    0.65110   1.00
O2       0.87413    0.98074    0.65071   1.00
O2       0.15856    0.08695    0.61181   1.00
O2       0.10660    0.12587    0.65071   1.00
O2       0.11559    0.99538    0.65110   1.00
O2       -0.07161   0.84144    0.61181   1.00
O2       0.87978    0.88441    0.65110   1.00
O2       0.01926    0.89340    0.65071   1.00
C1       0.91390    0.06020    0.59358   1.00
C1       0.14630    0.08610    0.59358   1.00
C1       -0.06020   0.85370    0.59358   1.00
C1       0.06663    0.14397    0.65673   1.00
C1       0.85603    0.92267    0.65673   1.00
C1       0.07733    0.93337    0.65673   1.00
O1       -0.00000   0.00000    0.87500   1.00
Zn1      -0.00000   0.00000    0.90411   1.00
Zn1      1.04288    0.94848    0.86608   1.00
Zn1      0.05152    0.09439    0.86608   1.00
Zn1      0.90561    -0.04288   0.86608   1.00
O2       0.02610    0.93860    0.91413   1.00
O2       0.06140    0.08750    0.91413   1.00
O2       0.91250    -0.02610   0.91413   1.00
O2       0.07161    0.91305    0.88819   1.00
O2       0.12022    0.00462    0.84890   1.00
O2       0.98074    0.87413    0.84929   1.00
O2       0.08695    0.15856    0.88819   1.00
O2       0.12587    0.10660    0.84929   1.00
O2       0.99538    0.11559    0.84890   1.00
O2       0.84144    -0.07161   0.88819   1.00
O2       0.88441    0.87978    0.84890   1.00
O2       0.89340    0.01926    0.84929   1.00
C1       0.06020    0.91390    0.90642   1.00
C1       0.08610    0.14630    0.90642   1.00
C1       0.85370    -0.06020   0.90642   1.00
C1       0.14397    0.06663    0.84327   1.00
C1       0.92267    0.85603    0.84327   1.00
C1       0.93337    0.07733    0.84327   1.00
O1       0.00000    0.00000    0.37500   1.00
Zn1      0.00000    0.00000    0.40411   1.00
Zn1      0.05152    -0.04288   0.36608   1.00
Zn1      0.90561    0.94848    0.36608   1.00
Zn1      1.04288    0.09439    0.36608   1.00
O2       0.06140    -0.02610   0.41413   1.00
O2       0.91250    0.93860    0.41413   1.00
O2       0.02610    0.08750    0.41413   1.00
O2       0.08695    -0.07161   0.38819   1.00
O2       0.99538    0.87978    0.34890   1.00
O2       0.12587    0.01926    0.34929   1.00
O2       0.84144    0.91305    0.38819   1.00
O2       0.89340    0.87413    0.34929   1.00
O2       0.88441    0.00462    0.34890   1.00
O2       0.07161    0.15856    0.38819   1.00
O2       0.12022    0.11559    0.34890   1.00
O2       0.98074    0.10660    0.34929   1.00
C1       0.08610    -0.06020   0.40642   1.00
C1       0.85370    0.91390    0.40642   1.00
C1       0.06020    0.14630    0.40642   1.00
C1       0.93337    0.85603    0.34327   1.00
C1       0.14397    0.07733    0.34327   1.00
C1       0.92267    0.06663    0.34327   1.00
O1       0.00000    0.00000    0.12500   1.00
Zn1      0.00000    0.00000    0.09589   1.00
Zn1      -0.04288   0.05152    0.13392   1.00
Zn1      0.94848    0.90561    0.13392   1.00
Zn1      0.09439    1.04288    0.13392   1.00
O2       -0.02610   0.06140    0.08587   1.00
O2       0.93860    0.91250    0.08587   1.00
O2       0.08750    0.02610    0.08587   1.00
O2       -0.07161   0.08695    0.11181   1.00
O2       0.87978    0.99538    0.15110   1.00
O2       0.01926    0.12587    0.15071   1.00
O2       0.91305    0.84144    0.11181   1.00
O2       0.87413    0.89340    0.15071   1.00
O2       0.00462    0.88441    0.15110   1.00
O2       0.15856    0.07161    0.11181   1.00
O2       0.11559    0.12022    0.15110   1.00
O2       0.10660    0.98074    0.15071   1.00
C1       -0.06020   0.08610    0.09358   1.00
C1       0.91390    0.85370    0.09358   1.00
C1       0.14630    0.06020    0.09358   1.00
C1       0.85603    0.93337    0.15673   1.00
C1       0.07733    0.14397    0.15673   1.00
C1       0.06663    0.92267    0.15673   1.00
O1       0.66667    0.33333    0.95833   1.00
Zn1      0.66667    0.33333    0.92922   1.00
Zn1      0.61515    0.37621    0.96725   1.00
Zn1      0.76106    0.38485    0.96725   1.00
Zn1      -0.37621   0.23894    0.96725   1.00
O2       0.60527    0.35943    0.91920   1.00
O2       0.75417    0.39473    0.91920   1.00
O2       0.64057    0.24583    0.91920   1.00
O2       0.57972    0.40494    0.94514   1.00
O2       0.67129    0.45355    0.98443   1.00
O2       0.54080    0.31407    0.98404   1.00
O2       0.82523    0.42028    0.94514   1.00
O2       0.77327    0.45920    0.98404   1.00
O2       -0.21774   0.32871    0.98443   1.00
O2       0.59506    0.17477    0.94514   1.00
O2       0.54645    0.21774    0.98443   1.00
O2       -0.31407   0.22673    0.98404   1.00
C1       0.58057    0.39353    0.92691   1.00
C1       0.81297    0.41943    0.92691   1.00
C1       0.60647    0.18703    0.92691   1.00
C1       0.73330    0.47730    0.99006   1.00
C1       0.52270    0.25600    0.99006   1.00
C1       -0.25600   0.26670    0.99006   1.00
O1       0.66667    0.33333    0.20833   1.00
Zn1      0.66667    0.33333    0.23744   1.00
Zn1      0.70954    0.28182    0.19942   1.00
Zn1      0.71818    0.42773    0.19942   1.00
Zn1      0.57227    0.29046    0.19942   1.00
O2       0.69277    0.27193    0.24746   1.00
O2       0.72807    0.42083    0.24746   1.00
O2       0.57917    0.30723    0.24746   1.00
O2       0.73828    0.24638    0.22152   1.00
O2       0.78688    0.33796    0.18224   1.00
O2       0.64740    0.20747    0.18263   1.00
O2       0.75362    0.49189    0.22152   1.00
O2       0.79253    0.43994    0.18263   1.00
O2       0.66204    0.44893    0.18224   1.00
O2       0.50811    0.26172    0.22152   1.00
O2       0.55107    0.21312    0.18224   1.00
O2       0.56006    0.35260    0.18263   1.00
C1       0.72687    0.24723    0.23975   1.00
C1       0.75277    0.47963    0.23975   1.00
C1       0.52037    0.27313    0.23975   1.00
C1       0.81063    0.39997    0.17661   1.00
C1       0.58933    0.18937    0.17661   1.00
C1       0.60003    0.41067    0.17661   1.00
O1       0.66667    0.33333    0.70833   1.00
Zn1      0.66667    0.33333    0.73744   1.00
Zn1      0.71818    0.29046    0.69942   1.00
Zn1      0.57227    0.28182    0.69942   1.00
Zn1      0.70954    0.42773    0.69942   1.00
O2       0.72807    0.30723    0.74746   1.00
O2       0.57917    0.27193    0.74746   1.00
O2       0.69277    0.42083    0.74746   1.00
O2       0.75362    0.26172    0.72152   1.00
O2       0.66204    0.21312    0.68224   1.00
O2       0.79253    0.35260    0.68263   1.00
O2       0.50811    0.24638    0.72152   1.00
O2       0.56006    0.20747    0.68263   1.00
O2       0.55107    0.33796    0.68224   1.00
O2       0.73828    0.49189    0.72152   1.00
O2       0.78688    0.44893    0.68224   1.00
O2       0.64740    0.43994    0.68263   1.00
C1       0.75277    0.27313    0.73975   1.00
C1       0.52037    0.24723    0.73975   1.00
C1       0.72687    0.47963    0.73975   1.00
C1       0.60003    0.18937    0.67661   1.00
C1       0.81063    0.41067    0.67661   1.00
C1       0.58933    0.39997    0.67661   1.00
O1       0.66667    0.33333    0.45833   1.00
Zn1      0.66667    0.33333    0.42922   1.00
Zn1      -0.37621   0.38485    0.46725   1.00
Zn1      0.61515    0.23894    0.46725   1.00
Zn1      0.76106    0.37621    0.46725   1.00
O2       0.64057    0.39473    0.41920   1.00
O2       0.60527    0.24583    0.41920   1.00
O2       0.75417    0.35943    0.41920   1.00
O2       0.59506    0.42028    0.44514   1.00
O2       0.54645    0.32871    0.48443   1.00
O2       -0.31407   0.45920    0.48404   1.00
O2       0.57972    0.17477    0.44514   1.00
O2       0.54080    0.22673    0.48404   1.00
O2       0.67129    0.21774    0.48443   1.00
O2       0.82523    0.40494    0.44514   1.00
O2       -0.21774   0.45355    0.48443   1.00
O2       0.77327    0.31407    0.48404   1.00
C1       0.60647    0.41943    0.42691   1.00
C1       0.58057    0.18703    0.42691   1.00
C1       0.81297    0.39353    0.42691   1.00
C1       0.52270    0.26670    0.49006   1.00
C1       -0.25600   0.47730    0.49006   1.00
C1       0.73330    0.25600    0.49006   1.00
O1       0.33333    0.66667    0.29167   1.00
Zn1      0.33333    0.66667    0.26256   1.00
Zn1      0.28182    0.70954    0.30058   1.00
Zn1      0.42773    0.71818    0.30058   1.00
Zn1      0.29046    0.57227    0.30058   1.00
O2       0.27193    0.69277    0.25254   1.00
O2       0.42083    0.72807    0.25254   1.00
O2       0.30723    0.57917    0.25254   1.00
O2       0.24638    0.73828    0.27848   1.00
O2       0.33796    0.78688    0.31776   1.00
O2       0.20747    0.64740    0.31737   1.00
O2       0.49189    0.75362    0.27848   1.00
O2       0.43994    0.79253    0.31737   1.00
O2       0.44893    0.66204    0.31776   1.00
O2       0.26172    0.50811    0.27848   1.00
O2       0.21312    0.55107    0.31776   1.00
O2       0.35260    0.56006    0.31737   1.00
C1       0.24723    0.72687    0.26025   1.00
C1       0.47963    0.75277    0.26025   1.00
C1       0.27313    0.52037    0.26025   1.00
C1       0.39997    0.81063    0.32339   1.00
C1       0.18937    0.58933    0.32339   1.00
C1       0.41067    0.60003    0.32339   1.00
O1       0.33333    0.66667    0.54167   1.00
Zn1      0.33333    0.66667    0.57078   1.00
Zn1      0.37621    0.61515    0.53275   1.00
Zn1      0.38485    0.76106    0.53275   1.00
Zn1      0.23894    -0.37621   0.53275   1.00
O2       0.35943    0.60527    0.58080   1.00
O2       0.39473    0.75417    0.58080   1.00
O2       0.24583    0.64057    0.58080   1.00
O2       0.40494    0.57972    0.55486   1.00
O2       0.45355    0.67129    0.51557   1.00
O2       0.31407    0.54080    0.51596   1.00
O2       0.42028    0.82523    0.55486   1.00
O2       0.45920    0.77327    0.51596   1.00
O2       0.32871    -0.21774   0.51557   1.00
O2       0.17477    0.59506    0.55486   1.00
O2       0.21774    0.54645    0.51557   1.00
O2       0.22673    -0.31407   0.51596   1.00
C1       0.39353    0.58057    0.57309   1.00
C1       0.41943    0.81297    0.57309   1.00
C1       0.18703    0.60647    0.57309   1.00
C1       0.47730    0.73330    0.50994   1.00
C1       0.25600    0.52270    0.50994   1.00
C1       0.26670    -0.25600   0.50994   1.00
O1       0.33333    0.66667    0.04167   1.00
Zn1      0.33333    0.66667    0.07078   1.00
Zn1      0.38485    -0.37621   0.03275   1.00
Zn1      0.23894    0.61515    0.03275   1.00
Zn1      0.37621    0.76106    0.03275   1.00
O2       0.39473    0.64057    0.08080   1.00
O2       0.24583    0.60527    0.08080   1.00
O2       0.35943    0.75417    0.08080   1.00
O2       0.42028    0.59506    0.05486   1.00
O2       0.32871    0.54645    0.01557   1.00
O2       0.45920    -0.31407   0.01596   1.00
O2       0.17477    0.57972    0.05486   1.00
O2       0.22673    0.54080    0.01596   1.00
O2       0.21774    0.67129    0.01557   1.00
O2       0.40494    0.82523    0.05486   1.00
O2       0.45355    -0.21774   0.01557   1.00
O2       0.31407    0.77327    0.01596   1.00
C1       0.41943    0.60647    0.07309   1.00
C1       0.18703    0.58057    0.07309   1.00
C1       0.39353    0.81297    0.07309   1.00
C1       0.26670    0.52270    0.00994   1.00
C1       0.47730    -0.25600   0.00994   1.00
C1       0.25600    0.73330    0.00994   1.00
O1       0.33333    0.66667    0.79167   1.00
Zn1      0.33333    0.66667    0.76256   1.00
Zn1      0.29046    0.71818    0.80058   1.00
Zn1      0.28182    0.57227    0.80058   1.00
Zn1      0.42773    0.70954    0.80058   1.00
O2       0.30723    0.72807    0.75254   1.00
O2       0.27193    0.57917    0.75254   1.00
O2       0.42083    0.69277    0.75254   1.00
O2       0.26172    0.75362    0.77848   1.00
O2       0.21312    0.66204    0.81776   1.00
O2       0.35260    0.79253    0.81737   1.00
O2       0.24638    0.50811    0.77848   1.00
O2       0.20747    0.56006    0.81737   1.00
O2       0.33796    0.55107    0.81776   1.00
O2       0.49189    0.73828    0.77848   1.00
O2       0.44893    0.78688    0.81776   1.00
O2       0.43994    0.64740    0.81737   1.00
C1       0.27313    0.75277    0.76025   1.00
C1       0.24723    0.52037    0.76025   1.00
C1       0.47963    0.72687    0.76025   1.00
C1       0.18937    0.60003    0.82339   1.00
C1       0.41067    0.81063    0.82339   1.00
C1       0.39997    0.58933    0.82339   1.00
C4       -0.17060   0.63846    0.53552   1.00
C4       -0.14649   0.69060    0.55064   1.00
C3       -0.15632   0.58394    0.53620   1.00
C3       -0.11268   0.68801    0.56856   1.00
C3       -0.21049   0.64016    0.51895   1.00
C3       -0.15623   0.74785    0.54802   1.00
C2       -0.22211   0.53116    0.50548   1.00
C2       -0.09475   0.79765    0.58077   1.00
C3       -0.18151   0.53168    0.52171   1.00
C3       -0.08725   0.73999    0.58313   1.00
C3       -0.23550   0.58576    0.50458   1.00
C3       -0.12923   0.79988    0.56316   1.00
H1       -0.12651   0.58051    0.54713   1.00
H1       -0.10585   0.64792    0.57180   1.00
C5       -0.22414   0.69529    0.51699   1.00
C5       -0.19241   0.75190    0.53071   1.00
H1       -0.16961   0.49365    0.52310   1.00
H1       -0.06310   0.73521    0.59569   1.00
H1       -0.26443   0.58494    0.49267   1.00
H1       -0.13473   0.84160    0.56176   1.00
C6       -0.27237   0.69268    0.50065   1.00
C6       -0.19599   0.81604    0.52703   1.00
H2       -0.31672   0.64155    0.50015   1.00
H2       -0.14589   0.86035    0.52974   1.00
H2       -0.29546   0.72319    0.50463   1.00
H2       -0.20382   0.82225    0.51108   1.00
C6       -0.23768   0.71576    0.47931   1.00
C6       -0.25270   0.81913    0.53984   1.00
H2       -0.20608   0.69268    0.47644   1.00
H2       -0.25146   0.80320    0.55541   1.00
C6       -0.28533   0.70093    0.46051   1.00
C6       -0.25131   0.88890    0.54075   1.00
H2       -0.20209   0.77061    0.47999   1.00
H2       -0.30212   0.78069    0.53382   1.00
C6       -0.33028   0.62331    0.45649   1.00
C6       -0.18738   0.94397    0.55211   1.00
C6       -0.33176   0.73256    0.46307   1.00
C6       -0.25379   0.91536    0.51928   1.00
C6       -0.24013   0.73339    0.44147   1.00
C6       -0.31507   0.87847    0.55262   1.00
H2       -0.29905   0.59924    0.45495   1.00
H2       -0.18354   0.92639    0.56722   1.00
H2       -0.36640   0.59783    0.46878   1.00
H2       -0.14070   0.95691    0.54391   1.00
H2       -0.35980   0.61363    0.44257   1.00
H2       -0.18924   0.99092    0.55390   1.00
H2       -0.36121   0.72617    0.44931   1.00
H2       -0.25774   0.96141    0.52012   1.00
H2       -0.36790   0.70816    0.47544   1.00
H2       -0.20774   0.92798    0.51074   1.00
H2       -0.30144   0.78697    0.46634   1.00
H2       -0.29759   0.87695    0.51080   1.00
H2       -0.20676   0.71223    0.43885   1.00
H2       -0.31543   0.86044    0.56800   1.00
H2       -0.27116   0.72400    0.42788   1.00
H2       -0.31616   0.92602    0.55378   1.00
H2       -0.20812   0.78849    0.44321   1.00
H2       -0.36199   0.84108    0.54511   1.00
C4       0.35877    0.18696    0.53468   1.00
C4       0.30556    0.15878    0.54948   1.00
C3       0.42733    0.23604    0.53972   1.00
C3       0.31842    0.17220    0.57061   1.00
C3       0.34376    0.16592    0.51397   1.00
C3       0.23656    0.11532    0.54318   1.00
C2       0.46708    0.24150    0.50496   1.00
C2       0.19762    0.10452    0.57932   1.00
C3       0.47997    0.26230    0.52536   1.00
C3       0.26616    0.14624    0.58510   1.00
C3       0.39891    0.19360    0.49983   1.00
C3       0.18478    0.09023    0.55840   1.00
H1       0.44145    0.25507    0.55398   1.00
H1       0.36631    0.20078    0.57630   1.00
C5       0.27519    0.11881    0.50782   1.00
C5       0.22077    0.09766    0.52220   1.00
H1       0.52839    0.29736    0.52998   1.00
H1       0.27876    0.15803    0.60010   1.00
H1       0.39034    0.17953    0.48500   1.00
H1       0.13507    0.05956    0.55449   1.00
C6       0.26125    0.09149    0.48634   1.00
C6       0.14702    0.05767    0.51549   1.00
H2       0.29963    0.07826    0.48199   1.00
H2       0.11837    0.07837    0.52296   1.00
H2       0.21469    0.04232    0.48539   1.00
H2       0.14125    0.06666    0.49960   1.00
C6       0.25718    0.14154    0.47073   1.00
C6       0.11380    -0.02101   0.51911   1.00
H2       0.29878    0.19342    0.47355   1.00
H2       0.12780    -0.03020   0.53416   1.00
C6       0.25820    0.12592    0.44764   1.00
C6       0.03447    -0.06551   0.51702   1.00
H2       0.21051    0.14293    0.47386   1.00
H2       0.13708    -0.04036   0.50846   1.00
C6       0.32764    0.13373    0.44118   1.00
C6       -0.00283   -0.04865   0.53381   1.00
C6       0.20019    0.05338    0.44209   1.00
C6       0.00969    -0.05653   0.49595   1.00
C6       0.24750    0.17799    0.43516   1.00
C6       0.01376    -0.14169   0.51940   1.00
H2       0.36979    0.18409    0.44520   1.00
H2       0.01438    -0.05343   0.54888   1.00
H2       0.33656    0.09574    0.44847   1.00
H2       0.00612    0.00307    0.53227   1.00
H2       0.32954    0.12740    0.42483   1.00
H2       -0.05784   -0.08309   0.53308   1.00
H2       0.19831    0.04479    0.42575   1.00
H2       -0.04495   -0.09133   0.49411   1.00
H2       0.20784    0.01455    0.44940   1.00
H2       0.01882    -0.00481   0.49403   1.00
H2       0.15083    0.04605    0.44686   1.00
H2       0.03623    -0.06671   0.48384   1.00
H2       0.28764    0.23015    0.43837   1.00
H2       0.02949    -0.15096   0.53416   1.00
H2       0.24827    0.16942    0.41889   1.00
H2       -0.04138   -0.17487   0.51819   1.00
H2       0.19859    0.17401    0.43875   1.00
H2       0.03744    -0.15709   0.50770   1.00
C4       0.81356    0.16540    0.53256   1.00
C4       0.83929    0.13722    0.54713   1.00
C3       0.83780    0.23672    0.53122   1.00
C3       0.89582    0.17874    0.55992   1.00
C3       0.76153    0.12134    0.51868   1.00
C3       0.80799    0.06485    0.54918   1.00
C2       0.76396    0.22280    0.50244   1.00
C2       0.88926    0.08034    0.57730   1.00
C3       0.81409    0.26469    0.51658   1.00
C3       0.91992    0.15130    0.57463   1.00
C3       0.73902    0.15191    0.50393   1.00
C3       0.83384    0.03895    0.56441   1.00
H1       0.87311    0.27095    0.54098   1.00
H1       0.92203    0.23047    0.55890   1.00
C5       0.73309    0.04887    0.51984   1.00
C5       0.75274    0.02040    0.53615   1.00
H1       0.83382    0.31657    0.51636   1.00
H1       0.96071    0.18400    0.58343   1.00
H1       0.70243    0.12230    0.49371   1.00
H1       0.81262    -0.01221   0.56642   1.00
C6       0.68340    0.00350    0.50374   1.00
C6       0.71544    -0.05576   0.53991   1.00
H2       0.70218    0.02638    0.48888   1.00
H2       0.70631    -0.06516   0.55613   1.00
H2       0.68318    -0.04442   0.50229   1.00
H2       0.66374    -0.08038   0.53398   1.00
C6       0.60863    -0.01198   0.50749   1.00
C6       0.75322    -0.09196   0.53090   1.00
H2       0.60935    0.03493    0.51188   1.00
H2       0.80765    -0.06182   0.53434   1.00
C6       0.55631    -0.04529   0.48972   1.00
C6       0.72786    -0.16719   0.53765   1.00
H2       0.58883    -0.04538   0.52071   1.00
H2       0.74981    -0.09099   0.51439   1.00
C6       0.57493    0.00373    0.47136   1.00
C6       0.74112    -0.17166   0.56053   1.00
C6       0.55104    -0.11295   0.48259   1.00
C6       0.65099    -0.21428   0.53312   1.00
C6       0.48489    -0.06154   0.49740   1.00
C6       0.76812    -0.19446   0.52555   1.00
H2       0.58013    0.05245    0.47596   1.00
H2       0.79480    -0.13811   0.56429   1.00
H2       0.62278    0.01402    0.46441   1.00
H2       0.71100    -0.15719   0.56999   1.00
H2       0.53571    -0.01805   0.45965   1.00
H2       0.72765    -0.22350   0.56477   1.00
H2       0.51101    -0.13818   0.47123   1.00
H2       0.63496    -0.26738   0.53652   1.00
H2       0.59873    -0.10380   0.47576   1.00
H2       0.61996    -0.20017   0.54231   1.00
H2       0.53937    -0.14786   0.49532   1.00
H2       0.64003    -0.21099   0.51718   1.00
H2       0.48562    -0.01523   0.50243   1.00
H2       0.82281    -0.16334   0.52839   1.00
H2       0.44658    -0.08453   0.48545   1.00
H2       0.75250    -0.24684   0.52984   1.00
H2       0.46825    -0.09710   0.51012   1.00
H2       0.75972    -0.19389   0.50927   1.00
C4       0.64885    -0.16309   0.96766   1.00
C4       0.70248    -0.13445   0.95300   1.00
C3       0.61394    -0.23375   0.97269   1.00
C3       0.72975    -0.17283   0.94394   1.00
C3       0.62860    -0.12022   0.97780   1.00
C3       0.73061    -0.06479   0.94701   1.00
C2       0.54265    -0.22049   0.99802   1.00
C2       0.80864    -0.07754   0.92262   1.00
C3       0.56269    -0.26164   0.98747   1.00
C3       0.78096    -0.14548   0.92914   1.00
C3       0.57644    -0.15055   0.99283   1.00
C3       0.78245    -0.03897   0.93181   1.00
H1       0.62398    -0.26774   0.96566   1.00
H1       0.71389    -0.22192   0.94791   1.00
C5       0.65988    -0.04924   0.97276   1.00
C5       0.70723    -0.02278   0.95622   1.00
H1       0.53967    -0.31294   0.99046   1.00
H1       0.79826    -0.17591   0.92314   1.00
H1       0.56098    -0.12163   1.00047   1.00
H1       0.80337    0.01017    0.92706   1.00
C6       0.64315    -0.00309   0.98510   1.00
C6       0.73218    0.04853    0.94821   1.00
H2       0.64288    -0.01480   1.00114   1.00
H2       0.73155    0.04722    0.93169   1.00
H2       0.68404    0.04970    0.98449   1.00
H2       0.69621    0.06584    0.95141   1.00
C6       0.57479    -0.00693   0.97853   1.00
C6       0.80405    0.10232    0.95663   1.00
H2       0.53555    -0.06019   0.97624   1.00
H2       0.83807    0.08111    0.95617   1.00
C6       0.54466    0.02642    0.99292   1.00
C6       0.84152    0.17387    0.94611   1.00
H2       0.58288    0.01688    0.96360   1.00
H2       0.79815    0.10985    0.97271   1.00
C6       0.52143    -0.01171   1.01349   1.00
C6       0.86173    0.16894    0.92395   1.00
C6       0.59655    0.10264    0.99688   1.00
C6       0.79739    0.20855    0.94624   1.00
C6       0.48095    0.02200    0.98259   1.00
C6       0.90818    0.22034    0.95799   1.00
H2       0.48557    -0.06594   1.01120   1.00
H2       0.89202    0.14366    0.92330   1.00
H2       0.56449    -0.00707   1.02215   1.00
H2       0.81700    0.14037    0.91440   1.00
H2       0.49624    0.00892    1.02284   1.00
H2       0.89191    0.21946    0.91722   1.00
H2       0.57346    0.12661    1.00572   1.00
H2       0.82578    0.26028    0.94019   1.00
H2       0.64042    0.10841    1.00538   1.00
H2       0.75195    0.18029    0.93691   1.00
H2       0.61482    0.13039    0.98262   1.00
H2       0.78127    0.21136    0.96163   1.00
H2       0.44230    -0.03096   0.97964   1.00
H2       0.94159    0.19848    0.95818   1.00
H2       0.45776    0.04430    0.99214   1.00
H2       0.93646    0.27089    0.95112   1.00
H2       0.49432    0.04922    0.96815   1.00
H2       0.89718    0.22694    0.97368   1.00
C4       0.18698    0.35879    0.96531   1.00
C4       0.15879    0.30558    0.95051   1.00
C3       0.23620    0.42731    0.96028   1.00
C3       0.17236    0.31842    0.92938   1.00
C3       0.16579    0.34381    0.98601   1.00
C3       0.11518    0.23660    0.95681   1.00
C2       0.24152    0.46709    0.99504   1.00
C2       0.10453    0.19765    0.92067   1.00
C3       0.26246    0.47995    0.97464   1.00
C3       0.14640    0.26616    0.91490   1.00
C3       0.19348    0.39896    1.00015   1.00
C3       0.09009    0.18482    0.94159   1.00
H1       0.25533    0.44140    0.94603   1.00
H1       0.20106    0.36631    0.92370   1.00
C5       0.11854    0.27527    0.99215   1.00
C5       0.09737    0.22084    0.97778   1.00
H1       0.29762    0.52835    0.97003   1.00
H1       0.15830    0.27875    0.89990   1.00
H1       0.17931    0.39041    1.01498   1.00
H1       0.05931    0.13513    0.94549   1.00
C6       0.09107    0.26138    1.01362   1.00
C6       0.05721    0.14710    0.98449   1.00
H2       0.07793    0.29984    1.01794   1.00
H2       0.07785    0.11835    0.97704   1.00
H2       0.04185    0.21488    1.01455   1.00
H2       0.06606    0.14129    1.00038   1.00
C6       0.14096    0.25718    1.02927   1.00
C6       -0.02144   0.11403    0.98082   1.00
H2       0.19289    0.29870    1.02647   1.00
H2       -0.03049   0.12806    0.96575   1.00
C6       0.12521    0.25824    1.05235   1.00
C6       -0.06609   0.03471    0.98291   1.00
H2       0.14225    0.21045    1.02616   1.00
H2       -0.04077   0.13738    0.99145   1.00
C6       0.13314    0.32774    1.05878   1.00
C6       -0.04924   -0.00268   0.96615   1.00
C6       0.05258    0.20033    1.05787   1.00
C6       -0.05732   0.00987    1.00399   1.00
C6       0.17711    0.24740    1.06487   1.00
C6       -0.14221   0.01416    0.98048   1.00
H2       0.18356    0.36983    1.05479   1.00
H2       -0.05387   0.01456    0.95106   1.00
H2       0.09526    0.33677    1.05147   1.00
H2       0.00243    0.00615    0.96772   1.00
H2       0.12672    0.32966    1.07513   1.00
H2       -0.08378   -0.05767   0.96687   1.00
H2       0.04389    0.19847    1.07420   1.00
H2       -0.09222   -0.04475   1.00582   1.00
H2       0.01386    0.20809    1.05052   1.00
H2       -0.00565   0.01889    1.00594   1.00
H2       0.04517    0.15093    1.05311   1.00
H2       -0.06750   0.03647    1.01608   1.00
H2       0.22933    0.28746    1.06169   1.00
H2       -0.15134   0.02993    0.96571   1.00
H2       0.16845    0.24819    1.08113   1.00
H2       -0.17549   -0.04097   0.98169   1.00
H2       0.17304    0.19844    1.06130   1.00
H2       -0.15761   0.03790    0.99216   1.00
C4       0.16541    0.81356    0.96744   1.00
C4       0.13722    0.83929    0.95287   1.00
C3       0.23672    0.83779    0.96877   1.00
C3       0.17874    0.89581    0.94007   1.00
C3       0.12135    0.76154    0.98132   1.00
C3       0.06485    0.80800    0.95083   1.00
C2       0.22280    0.76396    0.99755   1.00
C2       0.08034    0.88926    0.92270   1.00
C3       0.26470    0.81407    0.98342   1.00
C3       0.15131    0.91991    0.92537   1.00
C3       0.15191    0.73903    0.99608   1.00
C3       0.03895    0.83385    0.93559   1.00
H1       0.27095    0.87309    0.95902   1.00
H1       0.23047    0.92202    0.94109   1.00
C5       0.04887    0.73312    0.98017   1.00
C5       0.02040    0.75277    0.96386   1.00
H1       0.31657    0.83380    0.98363   1.00
H1       0.18401    0.96070    0.91656   1.00
H1       0.12231    0.70245    1.00629   1.00
H1       -0.01221   0.81264    0.93359   1.00
C6       0.00351    0.68344    0.99628   1.00
C6       -0.05576   0.71548    0.96010   1.00
H2       0.02640    0.70223    1.01112   1.00
H2       -0.06517   0.70634    0.94389   1.00
H2       -0.04440   0.68323    0.99772   1.00
H2       -0.08039   0.66379    0.96603   1.00
C6       -0.01199   0.60866    0.99252   1.00
C6       -0.09194   0.75328    0.96911   1.00
H2       0.03492    0.60937    0.98814   1.00
H2       -0.06180   0.80770    0.96566   1.00
C6       -0.04530   0.55635    1.01029   1.00
C6       -0.16717   0.72793    0.96237   1.00
H2       -0.04540   0.58887    0.97930   1.00
H2       -0.09096   0.74988    0.98562   1.00
C6       0.00373    0.57498    1.02865   1.00
C6       -0.17166   0.74117    0.93949   1.00
C6       -0.11295   0.55111    1.01743   1.00
C6       -0.21427   0.65106    0.96690   1.00
C6       -0.06157   0.48493    1.00263   1.00
C6       -0.19442   0.76821    0.97446   1.00
H2       0.05244    0.58017    1.02405   1.00
H2       -0.13809   0.79486    0.93573   1.00
H2       0.01404    0.62283    1.03560   1.00
H2       -0.15719   0.71104    0.93002   1.00
H2       -0.01805   0.53577    1.04037   1.00
H2       -0.22349   0.72771    0.93525   1.00
H2       -0.13818   0.51108    1.02879   1.00
H2       -0.26737   0.63504    0.96350   1.00
H2       -0.10378   0.59880    1.02426   1.00
H2       -0.20017   0.62002    0.95771   1.00
H2       -0.14786   0.53944    1.00470   1.00
H2       -0.21097   0.64011    0.98284   1.00
H2       -0.01527   0.48565    0.99759   1.00
H2       -0.16329   0.82289    0.97162   1.00
H2       -0.08455   0.44662    1.01457   1.00
H2       -0.24680   0.75259    0.97018   1.00
H2       -0.09713   0.46829    0.98990   1.00
H2       -0.19384   0.75982    0.99074   1.00
C4       0.16887    0.36239    0.46423   1.00
C4       0.14176    0.31175    0.44865   1.00
C3       0.23027    0.37928    0.47476   1.00
C3       0.17767    0.27966    0.44107   1.00
C3       0.13386    0.39796    0.46969   1.00
C3       0.07635    0.29188    0.44014   1.00
C2       0.22553    0.46714    0.49502   1.00
C2       0.08554    0.20693    0.41787   1.00
C3       0.25801    0.43026    0.48962   1.00
C3       0.15039    0.22860    0.42622   1.00
C3       0.16402    0.44979    0.48482   1.00
C3       0.05021    0.23942    0.42513   1.00
H1       0.25678    0.35469    0.47218   1.00
H1       0.22529    0.29266    0.44591   1.00
C5       0.07035    0.38121    0.46021   1.00
C5       0.03903    0.32439    0.44656   1.00
H1       0.30260    0.44020    0.49661   1.00
H1       0.17874    0.20727    0.42145   1.00
H1       0.14090    0.47651    0.48902   1.00
H1       0.00369    0.22359    0.41882   1.00
C6       0.03764    0.42408    0.46457   1.00
C6       -0.03307   0.29790    0.43903   1.00
H2       0.07681    0.47779    0.46429   1.00
H2       -0.06062   0.24237    0.43965   1.00
H2       0.00454    0.42152    0.45225   1.00
H2       -0.06253   0.31024    0.44944   1.00
C6       -0.00378   0.40436    0.48490   1.00
C6       -0.03622   0.32459    0.41734   1.00
H2       0.02558    0.39710    0.49681   1.00
H2       0.00086    0.32146    0.40745   1.00
C6       -0.02691   0.45439    0.49321   1.00
C6       -0.10670   0.28919    0.40619   1.00
H2       -0.04913   0.35435    0.48278   1.00
H2       -0.01884   0.37897    0.41861   1.00
C6       0.03487    0.52364    0.49972   1.00
C6       -0.13006   0.21393    0.40084   1.00
C6       -0.06987   0.46722    0.47740   1.00
C6       -0.16271   0.29182    0.41899   1.00
C6       -0.07195   0.42185    0.51228   1.00
C6       -0.09919   0.32759    0.38598   1.00
H2       0.06687    0.51625    0.51064   1.00
H2       -0.09111   0.21023    0.39207   1.00
H2       0.06658    0.55131    0.48679   1.00
H2       -0.14041   0.18292    0.41442   1.00
H2       0.01810    0.55634    0.50679   1.00
H2       -0.17678   0.19115    0.39185   1.00
H2       -0.08980   0.49818    0.48384   1.00
H2       -0.21033   0.27142    0.41050   1.00
H2       -0.03917   0.49433    0.46423   1.00
H2       -0.17334   0.26158    0.43278   1.00
H2       -0.11293   0.41915    0.47225   1.00
H2       -0.14691   0.34415    0.42332   1.00
H2       -0.04372   0.41237    0.52403   1.00
H2       -0.06065   0.32664    0.37626   1.00
H2       -0.08903   0.45517    0.51873   1.00
H2       -0.14711   0.30443    0.37755   1.00
H2       -0.11722   0.37334    0.50857   1.00
H2       -0.08409   0.38081    0.38878   1.00
C4       0.64768    0.81414    0.46730   1.00
C4       0.69973    0.84212    0.45214   1.00
C3       0.65120    0.77730    0.48433   1.00
C3       0.76209    0.84148    0.45405   1.00
C3       0.58947    0.82274    0.46557   1.00
C3       0.68996    0.87219    0.43431   1.00
C2       0.54411    0.76040    0.49847   1.00
C2       0.80360    0.89568    0.42105   1.00
C3       0.60124    0.75150    0.49952   1.00
C3       0.81237    0.86710    0.43896   1.00
C3       0.53991    0.79600    0.48142   1.00
C3       0.74225    0.89737    0.41925   1.00
H1       0.68986    0.76724    0.48625   1.00
H1       0.77361    0.82300    0.46657   1.00
C5       0.58168    0.85686    0.44833   1.00
C5       0.62949    0.87689    0.43193   1.00
H1       0.60689    0.72563    0.51146   1.00
H1       0.85609    0.86489    0.44121   1.00
H1       0.49805    0.80151    0.48081   1.00
H1       0.73696    0.91869    0.40630   1.00
C6       0.52368    0.87197    0.44777   1.00
C6       0.61653    0.90215    0.41208   1.00
H2       0.51939    0.89099    0.46256   1.00
H2       0.62870    0.87865    0.39955   1.00
H2       0.53538    0.91521    0.43804   1.00
H2       0.56249    0.88300    0.40963   1.00
C6       0.45427    0.80942    0.44087   1.00
C6       0.65578    0.98186    0.41030   1.00
H2       0.44683    0.76336    0.44852   1.00
H2       0.70819    1.00233    0.41559   1.00
C6       0.38813    0.81398    0.44401   1.00
C6       0.65855    1.01334    0.38894   1.00
H2       0.45858    0.80084    0.42477   1.00
H2       0.63253    1.00121    0.42096   1.00
C6       0.37212    0.81525    0.46684   1.00
C6       0.70056    0.99729    0.37359   1.00
C6       0.39348    0.87757    0.43344   1.00
C6       0.58619    0.98786    0.38025   1.00
C6       0.32704    0.74972    0.43450   1.00
C6       0.69422    1.09206    0.39114   1.00
H2       0.36911    0.77155    0.47481   1.00
H2       0.75160    1.01366    0.37943   1.00
H2       0.41109    0.86138    0.47423   1.00
H2       0.67606    0.94292    0.37036   1.00
H2       0.32352    0.81364    0.46888   1.00
H2       0.70618    1.02334    0.35919   1.00
H2       0.34543    0.87768    0.43448   1.00
H2       0.58851    1.01377    0.36606   1.00
H2       0.43275    0.92438    0.44050   1.00
H2       0.56051    0.93333    0.37710   1.00
H2       0.40615    0.87867    0.41742   1.00
H2       0.55507    0.99726    0.39095   1.00
H2       0.32055    0.70327    0.44160   1.00
H2       0.74592    1.11280    0.39704   1.00
H2       0.27947    0.75033    0.43643   1.00
H2       0.69780    1.11648    0.37656   1.00
H2       0.33469    0.74668    0.41828   1.00
H2       0.66615    1.10672    0.40150   1.00
C4       0.18717    -0.17181   0.46525   1.00
C4       0.16181    -0.14685   0.44958   1.00
C3       0.15682    -0.18960   0.48487   1.00
C3       0.10029    -0.14470   0.45170   1.00
C3       0.24512    -0.17952   0.46144   1.00
C3       0.19866    -0.12301   0.43096   1.00
C2       0.23634    -0.22547   0.49664   1.00
C2       0.11222    -0.09326   0.41829   1.00
C3       0.18034    -0.21594   0.50008   1.00
C3       0.07633    -0.11843   0.43660   1.00
C3       0.26726    -0.20687   0.47730   1.00
C3       0.17272    -0.09630   0.41600   1.00
H1       0.11689    -0.18345   0.48891   1.00
H1       0.07023    -0.16276   0.46423   1.00
C5       0.27958    -0.15979   0.44227   1.00
C5       0.25939    -0.12654   0.42760   1.00
H1       0.15606    -0.22804   0.51388   1.00
H1       0.03175    -0.11805   0.43910   1.00
H1       0.30800    -0.21354   0.47512   1.00
H1       0.19774    -0.07844   0.40262   1.00
C6       0.33619    -0.17496   0.43770   1.00
C6       0.30173    -0.09453   0.40876   1.00
H2       0.32069    -0.22652   0.44275   1.00
H2       0.30626    -0.04484   0.40630   1.00
H2       0.34233    -0.17873   0.42148   1.00
H2       0.35467    -0.08070   0.41099   1.00
C6       0.40660    -0.12126   0.44700   1.00
C6       0.27341    -0.14106   0.38950   1.00
H2       0.39920    -0.10973   0.46258   1.00
H2       0.21807    -0.16327   0.38877   1.00
C6       0.46481    -0.13947   0.44717   1.00
C6       0.30357    -0.10781   0.36842   1.00
H2       0.42476    -0.07356   0.43866   1.00
H2       0.28165    -0.18427   0.39159   1.00
C6       0.44756    -0.20057   0.46140   1.00
C6       0.28455    -0.05289   0.36277   1.00
C6       0.47968    -0.15585   0.42559   1.00
C6       0.38213    -0.07553   0.36789   1.00
C6       0.53094    -0.07701   0.45528   1.00
C6       0.27287    -0.16425   0.35192   1.00
H2       0.43571    -0.19105   0.47669   1.00
H2       0.22941    -0.07381   0.36333   1.00
H2       0.40389    -0.24737   0.45588   1.00
H2       0.30805    -0.00952   0.37306   1.00
H2       0.49033    -0.20984   0.46251   1.00
H2       0.30172    -0.03342   0.34747   1.00
H2       0.52349    -0.16368   0.42566   1.00
H2       0.40210    -0.05685   0.35272   1.00
H2       0.43625    -0.20224   0.41970   1.00
H2       0.40662    -0.03237   0.37826   1.00
H2       0.49058    -0.11422   0.41516   1.00
H2       0.39698    -0.11278   0.37223   1.00
H2       0.52340    -0.06371   0.47061   1.00
H2       0.21737    -0.18827   0.35151   1.00
H2       0.57308    -0.08742   0.45581   1.00
H2       0.29210    -0.14340   0.33686   1.00
H2       0.54656    -0.03248   0.44561   1.00
H2       0.28574    -0.20393   0.35484   1.00
C4       0.35114    0.16301    0.03234   1.00
C4       0.29826    0.13837    0.04724   1.00
C3       0.36420    0.11846    0.02032   1.00
C3       0.25031    0.06766    0.04968   1.00
C3       0.39312    0.23479    0.02914   1.00
C3       0.29229    0.18552    0.06030   1.00
C2       0.45586    0.21264    0.00151   1.00
C2       0.19339    0.08821    0.07802   1.00
C3       0.41470    0.14237    0.00530   1.00
C3       0.19964    0.04319    0.06466   1.00
C3       0.44375    0.25704    0.01362   1.00
C3       0.24021    0.15850    0.07543   1.00
H1       0.33796    0.06700    0.02218   1.00
H1       0.24997    0.03132    0.04055   1.00
C5       0.38429    0.28223    0.04135   1.00
C5       0.33728    0.25750    0.05800   1.00
H1       0.42139    0.10761    -0.00290   1.00
H1       0.16679    -0.00842   0.06569   1.00
H1       0.47429    0.30766    0.01080   1.00
H1       0.23465    0.19038    0.08509   1.00
C6       0.42406    0.35757    0.03637   1.00
C6       0.33510    0.30630    0.07328   1.00
H2       0.42335    0.36409    0.02001   1.00
H2       0.33163    0.28601    0.08850   1.00
H2       0.39821    0.38406    0.04179   1.00
H2       0.38338    0.35390    0.07401   1.00
C6       0.49863    0.39416    0.04493   1.00
C6       0.27650    0.32249    0.06911   1.00
H2       0.52179    0.36262    0.04208   1.00
H2       0.22952    0.27534    0.06542   1.00
C6       0.54904    0.46778    0.03702   1.00
C6       0.25966    0.35974    0.08622   1.00
H2       0.49546    0.39629    0.06142   1.00
H2       0.28970    0.35349    0.05536   1.00
C6       0.56504    0.46775    0.01414   1.00
C6       0.22989    0.31427    0.10532   1.00
C6       0.52089    0.51675    0.04064   1.00
C6       0.32330    0.42799    0.09232   1.00
C6       0.61728    0.49607    0.04880   1.00
C6       0.20488    0.37591    0.07813   1.00
H2       0.58398    0.43278    0.01102   1.00
H2       0.18550    0.26520    0.10146   1.00
H2       0.51994    0.45236    0.00482   1.00
H2       0.26732    0.30436    0.11254   1.00
H2       0.60376    0.51846    0.00910   1.00
H2       0.21394    0.33876    0.11660   1.00
H2       0.55842    0.56892    0.03641   1.00
H2       0.31000    0.45583    0.10319   1.00
H2       0.47528    0.50179    0.03158   1.00
H2       0.36172    0.41918    0.09941   1.00
H2       0.50786    0.51663    0.05657   1.00
H2       0.34611    0.46040    0.07907   1.00
H2       0.63975    0.46366    0.04657   1.00
H2       0.15847    0.32923    0.07379   1.00
H2       0.65442    0.54735    0.04370   1.00
H2       0.19105    0.40160    0.08961   1.00
H2       0.60957    0.49865    0.06504   1.00
H2       0.22342    0.40906    0.06485   1.00
C4       0.81358    0.64815    0.03256   1.00
C4       0.84169    0.70045    0.04764   1.00
C3       0.76974    0.64714    0.01689   1.00
C3       0.83382    0.75903    0.04687   1.00
C3       0.82927    0.59434    0.03295   1.00
C3       0.87935    0.69485    0.06421   1.00
C2       0.75938    0.54426    0.00148   1.00
C2       0.89565    0.80460    0.07864   1.00
C3       0.74368    0.59703    0.00175   1.00
C3       0.85963    0.80941    0.06193   1.00
C3       0.80200    0.54449    0.01719   1.00
C3       0.90448    0.74708    0.07929   1.00
H1       0.75455    0.68239    0.01601   1.00
H1       0.80963    0.76763    0.03523   1.00
C5       0.87079    0.59103    0.04884   1.00
C5       0.89140    0.63850    0.06535   1.00
H1       0.71256    0.59932    -0.00918   1.00
H1       0.85200    0.85028    0.06054   1.00
H1       0.81240    0.50571    0.01687   1.00
H1       0.93109    0.74465    0.09137   1.00
C6       0.89293    0.53810    0.04786   1.00
C6       0.92496    0.62942    0.08403   1.00
H2       0.90896    0.53586    0.03243   1.00
H2       0.90275    0.63854    0.09750   1.00
H2       0.93971    0.55400    0.05632   1.00
H2       0.91142    0.57652    0.08614   1.00
C6       0.83696    0.46609    0.05558   1.00
C6       1.00461    0.67506    0.08385   1.00
H2       0.78737    0.45394    0.04937   1.00
H2       1.01889    0.72653    0.07883   1.00
C6       0.84786    0.40429    0.05113   1.00
C6       1.04344    0.68149    0.10411   1.00
H2       0.83221    0.46951    0.07197   1.00
H2       1.02421    0.65510    0.07218   1.00
C6       0.84425    0.38895    0.02808   1.00
C6       1.02664    0.71956    0.12066   1.00
C6       0.91684    0.41645    0.05963   1.00
C6       1.02705    0.61078    0.11232   1.00
C6       0.78996    0.33998    0.06165   1.00
C6       1.12128    0.72359    0.09993   1.00
H2       0.79657    0.38121    0.02155   1.00
H2       1.03662    0.76927    0.11521   1.00
H2       0.88617    0.43051    0.01989   1.00
H2       0.97337    0.69063    0.12525   1.00
H2       0.84716    0.34300    0.02524   1.00
H2       1.05746    0.72795    0.13423   1.00
H2       0.92177    0.37122    0.05774   1.00
H2       1.05801    0.61604    0.12562   1.00
H2       0.95952    0.45837    0.05175   1.00
H2       0.97370    0.58073    0.11682   1.00
H2       0.92129    0.42878    0.07576   1.00
H2       1.03708    0.58232    0.10080   1.00
H2       0.74004    0.32868    0.05601   1.00
H2       1.13573    0.77439    0.09429   1.00
H2       0.79511    0.29524    0.05886   1.00
H2       1.15066    0.72988    0.11370   1.00
H2       0.79069    0.34714    0.07803   1.00
H2       1.13658    0.69858    0.08864   1.00
C4       -0.17181   0.18718    0.03475   1.00
C4       -0.14684   0.16183    0.05042   1.00
C3       -0.18974   0.15674    0.01515   1.00
C3       -0.14482   0.10024    0.04832   1.00
C3       -0.17939   0.24522    0.03855   1.00
C3       -0.12286   0.19876    0.06903   1.00
C2       -0.22548   0.23635    0.00336   1.00
C2       -0.09325   0.11224    0.08171   1.00
C3       -0.21608   0.18026    -0.00006   1.00
C3       -0.11856   0.07627    0.06342   1.00
C3       -0.20675   0.26736    0.02269   1.00
C3       -0.09616   0.17282    0.08399   1.00
H1       -0.18368   0.11674    0.01112   1.00
H1       -0.16298   0.07012    0.03581   1.00
C5       -0.15951   0.27978    0.05770   1.00
C5       -0.12626   0.25957    0.07237   1.00
H1       -0.22828   0.15591    -0.01385   1.00
H1       -0.11827   0.03164    0.06094   1.00
H1       -0.21332   0.30816    0.02486   1.00
H1       -0.07820   0.19789    0.09736   1.00
C6       -0.17454   0.33649    0.06226   1.00
C6       -0.09411   0.30199    0.09119   1.00
H2       -0.22610   0.32105    0.05723   1.00
H2       -0.04444   0.30644    0.09363   1.00
H2       -0.17822   0.34271    0.07848   1.00
H2       -0.08021   0.35493    0.08893   1.00
C6       -0.12081   0.40681    0.05293   1.00
C6       -0.14056   0.27382    0.11047   1.00
H2       -0.10937   0.39931    0.03735   1.00
H2       -0.16285   0.21848    0.11122   1.00
C6       -0.13889   0.46511    0.05275   1.00
C6       -0.10718   0.30405    0.13153   1.00
H2       -0.07308   0.42494    0.06125   1.00
H2       -0.18372   0.28214    0.10839   1.00
C6       -0.20003   0.44790    0.03853   1.00
C6       -0.05232   0.28493    0.13717   1.00
C6       -0.15512   0.48013    0.07433   1.00
C6       -0.07478   0.38263    0.13203   1.00
C6       -0.07640   0.53115    0.04460   1.00
C6       -0.16354   0.27351    0.14806   1.00
H2       -0.19061   0.43594    0.02324   1.00
H2       -0.07333   0.22978    0.13664   1.00
H2       -0.24684   0.40430    0.04408   1.00
H2       -0.00900   0.30833    0.12686   1.00
H2       -0.20921   0.49072    0.03741   1.00
H2       -0.03276   0.30215    0.15246   1.00
H2       -0.16286   0.52400    0.07424   1.00
H2       -0.05600   0.40265    0.14718   1.00
H2       -0.20152   0.43678    0.08024   1.00
H2       -0.03166   0.40700    0.12164   1.00
H2       -0.11345   0.49102    0.08474   1.00
H2       -0.11199   0.39753    0.12770   1.00
H2       -0.06320   0.52350    0.02927   1.00
H2       -0.18764   0.21801    0.14849   1.00
H2       -0.08672   0.57334    0.04405   1.00
H2       -0.14260   0.29279    0.16310   1.00
H2       -0.03184   0.54674    0.05424   1.00
H2       -0.20317   0.28645    0.14514   1.00
C4       0.50081    0.97074    0.86915   1.00
C4       0.52494    1.02158    0.88468   1.00
C3       0.54272    0.94714    0.86035   1.00
C3       0.59005    1.04710    0.89396   1.00
C3       0.43231    0.94191    0.86195   1.00
C3       0.48299    1.04843    0.89138   1.00
C2       0.45106    0.86554    0.83847   1.00
C2       0.57517    1.12678    0.91536   1.00
C3       0.51863    0.89592    0.84555   1.00
C3       0.61465    1.09833    0.90876   1.00
C3       0.40963    0.88959    0.84694   1.00
C3       0.51010    1.10083    0.90641   1.00
H1       0.59253    0.96676    0.86422   1.00
H1       0.62177    1.02894    0.89046   1.00
C5       0.38858    0.96564    0.86962   1.00
C5       0.41582    1.02271    0.88321   1.00
H1       0.55133    0.88095    0.83987   1.00
H1       0.66217    1.11473    0.91481   1.00
H1       0.36113    0.86753    0.84154   1.00
H1       0.48199    1.12152    0.91147   1.00
C6       0.31421    0.92972    0.86347   1.00
C6       0.37493    1.05656    0.88884   1.00
H2       0.29380    0.87479    0.86406   1.00
H2       0.40811    1.11172    0.88831   1.00
H2       0.28295    0.93647    0.87471   1.00
H2       0.33738    1.04858    0.87730   1.00
C6       0.30201    0.95294    0.84224   1.00
C6       0.33810    1.03247    0.90986   1.00
H2       0.34005    0.95581    0.83146   1.00
H2       0.37314    1.03091    0.92096   1.00
C6       0.23003    0.90909    0.83233   1.00
C6       0.30713    1.07447    0.91931   1.00
H2       0.31215    1.00524    0.84377   1.00
H2       0.29721    0.97962    0.90819   1.00
C6       0.21600    0.83673    0.82662   1.00
C6       0.36341    1.14758    0.92520   1.00
C6       0.17247    0.90279    0.84644   1.00
C6       0.25585    1.07881    0.90470   1.00
C6       0.22766    0.94471    0.81247   1.00
C6       0.26822    1.03811    0.93898   1.00
H2       0.25636    0.83942    0.81691   1.00
H2       0.40109    1.14630    0.93526   1.00
H2       0.21277    0.80721    0.84003   1.00
H2       0.39014    1.17753    0.91190   1.00
H2       0.16784    0.80825    0.81846   1.00
H2       0.34174    1.17481    0.93304   1.00
H2       0.12306    0.87635    0.83884   1.00
H2       0.23095    1.10393    0.91197   1.00
H2       0.16884    0.87393    0.86008   1.00
H2       0.28154    1.10807    0.89116   1.00
H2       0.18187    0.95306    0.85104   1.00
H2       0.21645    1.02801    0.89997   1.00
H2       0.26695    0.94980    0.80185   1.00
H2       0.30237    1.03433    0.94993   1.00
H2       0.17840    0.91571    0.80489   1.00
H2       0.24599    1.06583    0.94623   1.00
H2       0.23586    0.99563    0.81555   1.00
H2       0.22684    0.98659    0.93575   1.00
C4       0.01898    0.51920    0.86603   1.00
C4       -0.03501   0.49312    0.88058   1.00
C3       0.07116    0.50149    0.86625   1.00
C3       -0.04468   0.44215    0.89500   1.00
C3       0.02178    0.56487    0.85059   1.00
C3       -0.08166   0.51831    0.88094   1.00
C2       0.12632    0.56925    0.83602   1.00
C2       -0.14215   0.44275    0.91066   1.00
C3       0.12304    0.52541    0.85166   1.00
C3       -0.09636   0.41790    0.90966   1.00
C3       0.07524    0.58778    0.83595   1.00
C3       -0.13337   0.49256    0.89618   1.00
H1       0.07381    0.47109    0.87713   1.00
H1       -0.01495   0.42024    0.89526   1.00
C5       -0.02767   0.58679    0.85011   1.00
C5       -0.07626   0.56755    0.86626   1.00
H1       0.15900    0.51053    0.85260   1.00
H1       -0.10046   0.38131    0.91968   1.00
H1       0.07866    0.61993    0.82466   1.00
H1       -0.16721   0.50957    0.89700   1.00
C6       -0.02842   0.62923    0.83247   1.00
C6       -0.12129   0.59907    0.86815   1.00
H2       -0.02183   0.60797    0.81838   1.00
H2       -0.12280   0.61213    0.88398   1.00
H2       -0.07855   0.62363    0.83029   1.00
H2       -0.09849   0.64882    0.86092   1.00
C6       0.02554    0.70691    0.83458   1.00
C6       -0.19472   0.55284    0.85934   1.00
H2       0.07410    0.71270    0.83967   1.00
H2       -0.21426   0.50016    0.86424   1.00
C6       0.03996    0.75301    0.81542   1.00
C6       -0.25002   0.57280    0.86443   1.00
H2       0.00888    0.72759    0.84686   1.00
H2       -0.19027   0.55190    0.84286   1.00
C6       0.07420    0.73389    0.79824   1.00
C6       -0.26748   0.56482    0.88738   1.00
C6       -0.02610   0.74887    0.80719   1.00
C6       -0.22719   0.64679    0.85778   1.00
C6       0.08990    0.82818    0.82148   1.00
C6       -0.31636   0.52412    0.85273   1.00
H2       0.12045    0.73524    0.80366   1.00
H2       -0.28274   0.51339    0.89263   1.00
H2       0.04014    0.68295    0.79237   1.00
H2       -0.22409   0.60068    0.89646   1.00
H2       0.08833    0.76925    0.78552   1.00
H2       -0.30934   0.57426    0.89056   1.00
H2       -0.01484   0.78479    0.79476   1.00
H2       -0.26796   0.65854    0.86006   1.00
H2       -0.06121   0.69800    0.80142   1.00
H2       -0.18331   0.68349    0.86657   1.00
H2       -0.05198   0.76072    0.81911   1.00
H2       -0.21321   0.65418    0.84177   1.00
H2       0.13781    0.83407    0.82720   1.00
H2       -0.33510   0.47111    0.85704   1.00
H2       0.10192    0.86240    0.80853   1.00
H2       -0.35677   0.53577    0.85591   1.00
H2       0.06801    0.84517    0.83329   1.00
H2       -0.30765   0.52842    0.83638   1.00
C4       0.47995    0.49827    0.86583   1.00
C4       0.50553    0.46998    0.88042   1.00
C3       0.50679    0.56987    0.86379   1.00
C3       0.56421    0.51127    0.89248   1.00
C3       0.42538    0.45404    0.85268   1.00
C3       0.47183    0.39773    0.88323   1.00
C2       0.43053    0.55570    0.83567   1.00
C2       0.55534    0.41307    0.91062   1.00
C3       0.48316    0.59784    0.84912   1.00
C3       0.58825    0.48384    0.90720   1.00
C3       0.40303    0.48459    0.83786   1.00
C3       0.49772    0.37186    0.89846   1.00
H1       0.54407    0.60435    0.87303   1.00
H1       0.59210    0.56278    0.89089   1.00
C5       0.39436    0.38144    0.85458   1.00
C5       0.41422    0.35337    0.87094   1.00
H1       0.50484    0.64991    0.84837   1.00
H1       0.63068    0.51638    0.91547   1.00
H1       0.36467    0.45484    0.82815   1.00
H1       0.47486    0.32081    0.90100   1.00
C6       0.34174    0.33549    0.83918   1.00
C6       0.37472    0.27774    0.87554   1.00
H2       0.35925    0.35616    0.82404   1.00
H2       0.36742    0.27055    0.89188   1.00
H2       0.33906    0.28631    0.83810   1.00
H2       0.32241    0.25435    0.87017   1.00
C6       0.26860    0.32374    0.84359   1.00
C6       0.40868    0.23779    0.86654   1.00
H2       0.27209    0.37222    0.84761   1.00
H2       0.46360    0.26639    0.86936   1.00
C6       0.21377    0.29004    0.82646   1.00
C6       0.38123    0.16291    0.87402   1.00
H2       0.24939    0.29216    0.85719   1.00
H2       0.40331    0.23693    0.85006   1.00
C6       0.23194    0.33702    0.80762   1.00
C6       0.39683    0.16048    0.89682   1.00
C6       0.20452    0.22022    0.81989   1.00
C6       0.30350    0.11792    0.87041   1.00
C6       0.14437    0.27782    0.83476   1.00
C6       0.41765    0.13159    0.86186   1.00
H2       0.23991    0.38716    0.81181   1.00
H2       0.45123    0.19266    0.89994   1.00
H2       0.27818    0.34438    0.80026   1.00
H2       0.36937    0.17791    0.90639   1.00
H2       0.19119    0.31522    0.79636   1.00
H2       0.38178    0.10865    0.90155   1.00
H2       0.16286    0.19497    0.80901   1.00
H2       0.28578    0.06481    0.87432   1.00
H2       0.25057    0.22644    0.81265   1.00
H2       0.27509    0.13499    0.87971   1.00
H2       0.19310    0.18664    0.83295   1.00
H2       0.29096    0.11987    0.85453   1.00
H2       0.14792    0.32576    0.83944   1.00
H2       0.47279    0.16111    0.86406   1.00
H2       0.10442    0.25471    0.82328   1.00
H2       0.40047    0.07930    0.86665   1.00
H2       0.12806    0.24382    0.84787   1.00
H2       0.40743    0.13059    0.84565   1.00
C4       0.30416    0.16496    0.29752   1.00
C4       0.35554    0.18890    0.28217   1.00
C3       0.26536    0.19737    0.30168   1.00
C3       0.36677    0.24229    0.26851   1.00
C3       0.29043    0.10651    0.30934   1.00
C3       0.39772    0.15881    0.28016   1.00
C2       0.19793    0.11462    0.32789   1.00
C2       0.46164    0.23963    0.25175   1.00
C3       0.21362    0.17287    0.31632   1.00
C3       0.41838    0.26720    0.25382   1.00
C3       0.23706    0.08296    0.32403   1.00
C3       0.44996    0.18591    0.26507   1.00
H1       0.27370    0.24040    0.29436   1.00
H1       0.33742    0.26463    0.26858   1.00
C5       0.32975    0.07343    0.30644   1.00
C5       0.38698    0.10298    0.29291   1.00
H1       0.18730    0.19839    0.31853   1.00
H1       0.42403    0.30599    0.24448   1.00
H1       0.22548    0.04128    0.33264   1.00
H1       0.48128    0.16618    0.26328   1.00
C6       0.30993    0.00750    0.31751   1.00
C6       0.43651    0.07650    0.29208   1.00
H2       0.25474    -0.02537   0.31680   1.00
H2       0.48840    0.11962    0.29165   1.00
H2       0.32734    -0.02297   0.30952   1.00
H2       0.43682    0.05181    0.30619   1.00
C6       0.33671    0.01869    0.33990   1.00
C6       0.42235    0.02601    0.27405   1.00
H2       0.32813    0.05711    0.34719   1.00
H2       0.41210    0.04618    0.26026   1.00
C6       0.30701    -0.04517   0.35413   1.00
C6       0.47858    0.00733    0.26896   1.00
H2       0.39207    0.04117    0.33933   1.00
H2       0.37492    -0.02112   0.27735   1.00
C6       0.23003    -0.07389   0.35839   1.00
C6       0.54467    0.06992    0.26095   1.00
C6       0.31759    -0.10242   0.34514   1.00
C6       0.49605    -0.02267   0.28762   1.00
C6       0.34498    -0.02338   0.37478   1.00
C6       0.45125    -0.04755   0.25198   1.00
H2       0.22071    -0.03438   0.36445   1.00
H2       0.53388    0.09298    0.24796   1.00
H2       0.19966    -0.09407   0.34467   1.00
H2       0.56899    0.10895    0.27258   1.00
H2       0.21093    -0.11535   0.36942   1.00
H2       0.58177    0.05541    0.25612   1.00
H2       0.30115    -0.14464   0.35581   1.00
H2       0.53163    -0.04002   0.28355   1.00
H2       0.28809    -0.12287   0.33127   1.00
H2       0.51986    0.01547    0.29953   1.00
H2       0.37122    -0.08316   0.34160   1.00
H2       0.45014    -0.06598   0.29382   1.00
H2       0.33853    0.01658    0.38189   1.00
H2       0.43878    -0.02863   0.23835   1.00
H2       0.32567    -0.06626   0.38531   1.00
H2       0.48898    -0.06197   0.24780   1.00
H2       0.39951    -0.00389   0.37282   1.00
H2       0.40527    -0.09364   0.25688   1.00
C4       0.86628    0.69472    0.29788   1.00
C4       0.84090    0.64438    0.28221   1.00
C3       0.91151    0.69673    0.31325   1.00
C3       0.86443    0.59712    0.27955   1.00
C3       0.84614    0.74531    0.29847   1.00
C3       0.79009    0.64048    0.26852   1.00
C2       0.92031    0.79848    0.32900   1.00
C2       0.78719    0.54041    0.25115   1.00
C3       0.93803    0.74717    0.32829   1.00
C3       0.83824    0.54646    0.26458   1.00
C3       0.87460    0.79602    0.31397   1.00
C3       0.76447    0.58790    0.25354   1.00
H1       0.92634    0.66121    0.31421   1.00
H1       0.90197    0.59816    0.28827   1.00
C5       0.79852    0.74420    0.28391   1.00
C5       0.76647    0.68848    0.26990   1.00
H1       0.97064    0.74596    0.33889   1.00
H1       0.85716    0.51376    0.26350   1.00
H1       0.86187    0.83311    0.31479   1.00
H1       0.72799    0.58320    0.24362   1.00
C6       0.78329    0.80213    0.28338   1.00
C6       0.70764    0.67929    0.25675   1.00
H2       0.83090    0.85036    0.28488   1.00
H2       0.66824    0.62565    0.25676   1.00
H2       0.76594    0.80750    0.26848   1.00
H2       0.68079    0.70300    0.26348   1.00
C6       0.72960    0.79490    0.29965   1.00
C6       0.72984    0.70724    0.23466   1.00
H2       0.74126    0.77964    0.31416   1.00
H2       0.76513    0.69160    0.22882   1.00
C6       0.72113    0.85845    0.30357   1.00
C6       0.67218    0.68721    0.21851   1.00
H2       0.68014    0.75231    0.29512   1.00
H2       0.75954    0.76283    0.23554   1.00
C6       0.78615    0.91817    0.31318   1.00
C6       0.63430    0.60963    0.21392   1.00
C6       0.70356    0.88345    0.28382   1.00
C6       0.61982    0.70824    0.22534   1.00
C6       0.66153    0.83786    0.31876   1.00
C6       0.70525    0.72526    0.19843   1.00
H2       0.80056    0.90186    0.32700   1.00
H2       0.67003    0.59295    0.20937   1.00
H2       0.82924    0.93804    0.30278   1.00
H2       0.60630    0.57983    0.22711   1.00
H2       0.77810    0.96041    0.31715   1.00
H2       0.59749    0.59692    0.20166   1.00
H2       0.69297    0.92459    0.28695   1.00
H2       0.58267    0.69851    0.21339   1.00
H2       0.74587    0.90294    0.27311   1.00
H2       0.59169    0.67941    0.23867   1.00
H2       0.65877    0.84197    0.27652   1.00
H2       0.64535    0.76240    0.22908   1.00
H2       0.67172    0.82045    0.33309   1.00
H2       0.74224    0.71162    0.19281   1.00
H2       0.65389    0.88081    0.32209   1.00
H2       0.66697    0.71254    0.18660   1.00
H2       0.61379    0.79673    0.31266   1.00
H2       0.73167    0.78042    0.20059   1.00
C4       0.82886    0.13394    0.29782   1.00
C4       0.80402    0.15947    0.28216   1.00
C3       0.78502    0.08607    0.31258   1.00
C3       0.73309    0.13367    0.27886   1.00
C3       0.90012    0.15667    0.29903   1.00
C3       0.85119    0.21276    0.26914   1.00
C2       0.87855    0.07973    0.32890   1.00
C2       0.75380    0.21334    0.25114   1.00
C3       0.80893    0.05946    0.32759   1.00
C3       0.70863    0.15992    0.26390   1.00
C3       0.92236    0.12804    0.31448   1.00
C3       0.82420    0.23834    0.25416   1.00
H1       0.73417    0.06925    0.31309   1.00
H1       0.69651    0.09437    0.28706   1.00
C5       0.94713    0.20693    0.28513   1.00
C5       0.92310    0.23882    0.27118   1.00
H1       0.77466    0.02488    0.33773   1.00
H1       0.65688    0.13929    0.26234   1.00
H1       0.97257    0.14258    0.31574   1.00
H1       0.85614    0.27653    0.24471   1.00
C6       1.02120    0.22509    0.28520   1.00
C6       0.97264    0.30001    0.25878   1.00
H2       1.02380    0.17845    0.28639   1.00
H2       0.95633    0.33786    0.25895   1.00
H2       1.04532    0.24479    0.27059   1.00
H2       1.02231    0.32768    0.26602   1.00
C6       1.06438    0.27767    0.30215   1.00
C6       0.98202    0.28117    0.23659   1.00
H2       1.03578    0.26340    0.31638   1.00
H2       0.93226    0.24514    0.23017   1.00
C6       1.13711    0.28867    0.30662   1.00
C6       1.01969    0.34104    0.22110   1.00
H2       1.06970    0.32681    0.29799   1.00
H2       1.00969    0.25321    0.23745   1.00
C6       1.13353    0.22381    0.31575   1.00
C6       0.97797    0.37681    0.21649   1.00
C6       1.18202    0.31001    0.28729   1.00
C6       1.09150    0.39461    0.22879   1.00
C6       1.17254    0.34681    0.32246   1.00
C6       1.02853    0.31131    0.20085   1.00
H2       1.10124    0.20677    0.32925   1.00
H2       0.92657    0.34014    0.21134   1.00
H2       1.11293    0.18192    0.30491   1.00
H2       0.97337    0.40253    0.22985   1.00
H2       1.18407    0.23343    0.32012   1.00
H2       1.00231    0.41526    0.20466   1.00
H2       1.23402    0.32227    0.29085   1.00
H2       1.11918    0.43350    0.21728   1.00
H2       1.16185    0.26894    0.27615   1.00
H2       1.08801    0.42049    0.24229   1.00
H2       1.18423    0.35476    0.28032   1.00
H2       1.12145    0.37051    0.23255   1.00
H2       1.14319    0.33397    0.33652   1.00
H2       0.97913    0.27361    0.19464   1.00
H2       1.22347    0.35612    0.32619   1.00
H2       1.05425    0.35121    0.18947   1.00
H2       1.17784    0.39444    0.31673   1.00
H2       1.05882    0.28652    0.20303   1.00
C4       0.82569    0.68458    0.80097   1.00
C4       0.79983    0.63088    0.78633   1.00
C3       0.79208    0.72194    0.80557   1.00
C3       0.73513    0.60604    0.77683   1.00
C3       0.88751    0.70236    0.81155   1.00
C3       0.83945    0.60018    0.78080   1.00
C2       0.87614    0.79094    0.83130   1.00
C2       0.74893    0.52458    0.75597   1.00
C3       0.81625    0.77328    0.82033   1.00
C3       0.71049    0.55476    0.76205   1.00
C3       0.91020    0.75470    0.82656   1.00
C3       0.81269    0.54836    0.76559   1.00
H1       0.74915    0.71372    0.79821   1.00
H1       0.70317    0.62381    0.78046   1.00
C5       0.92513    0.66851    0.80697   1.00
C5       0.90369    0.62105    0.79045   1.00
H1       0.78951    0.79814    0.82299   1.00
H1       0.66354    0.53929    0.75572   1.00
H1       0.95368    0.76845    0.83449   1.00
H1       0.83957    0.52564    0.76116   1.00
C6       0.98639    0.68271    0.81976   1.00
C6       0.94831    0.59337    0.78293   1.00
H2       0.97413    0.68356    0.83571   1.00
H2       0.94882    0.59402    0.76640   1.00
H2       0.99614    0.64035    0.81941   1.00
H2       1.00175    0.62767    0.78643   1.00
C6       1.05299    0.74960    0.81345   1.00
C6       0.92673    0.52074    0.79148   1.00
H2       1.04131    0.79037    0.81089   1.00
H2       0.87129    0.48853    0.79070   1.00
C6       1.11533    0.77747    0.82825   1.00
C6       0.95896    0.48083    0.78140   1.00
H2       1.06899    0.74057    0.79870   1.00
H2       0.93898    0.52617    0.80765   1.00
C6       1.10045    0.80195    0.84859   1.00
C6       0.93503    0.46129    0.75912   1.00
C6       1.13637    0.72329    0.83262   1.00
C6       1.03789    0.52228    0.78201   1.00
C6       1.17688    0.83984    0.81816   1.00
C6       0.93533    0.41363    0.79338   1.00
H2       1.08436    0.83947    0.84601   1.00
H2       0.87944    0.43291    0.75813   1.00
H2       1.06035    0.75973    0.85711   1.00
H2       0.95355    0.50626    0.74953   1.00
H2       1.14568    0.82559    0.85823   1.00
H2       0.95393    0.42948    0.75268   1.00
H2       1.18274    0.74472    0.84176   1.00
H2       1.05976    0.49215    0.77627   1.00
H2       1.09655    0.68022    0.84097   1.00
H2       1.05744    0.56792    0.77264   1.00
H2       1.14576    0.70415    0.81851   1.00
H2       1.05605    0.53791    0.79748   1.00
H2       1.16493    0.88002    0.81494   1.00
H2       0.87982    0.38204    0.79324   1.00
H2       1.22166    0.86144    0.82799   1.00
H2       0.95620    0.38366    0.78681   1.00
H2       1.19077    0.82550    0.80389   1.00
H2       0.95191    0.42408    0.80916   1.00
C4       0.30581    0.13326    0.79805   1.00
C4       0.35828    0.15681    0.78304   1.00
C3       0.24583    0.13800    0.79548   1.00
C3       0.35127    0.18005    0.76358   1.00
C3       0.31277    0.10380    0.81644   1.00
C3       0.42045    0.15740    0.78737   1.00
C2       0.19812    0.08262    0.82795   1.00
C2       0.46566    0.20758    0.75303   1.00
C3       0.19342    0.11318    0.80990   1.00
C3       0.40337    0.20500    0.74905   1.00
C3       0.25805    0.07880    0.83069   1.00
C3       0.47240    0.18356    0.77220   1.00
H1       0.23829    0.16028    0.78312   1.00
H1       0.30778    0.17910    0.75917   1.00
C5       0.37327    0.10024    0.82026   1.00
C5       0.42937    0.13196    0.80636   1.00
H1       0.15133    0.11789    0.80711   1.00
H1       0.39524    0.22127    0.73534   1.00
H1       0.26091    0.05709    0.84388   1.00
H1       0.51749    0.18523    0.77477   1.00
C6       0.37683    0.06247    0.83874   1.00
C6       0.49796    0.13959    0.81159   1.00
H2       0.32873    0.01474    0.84029   1.00
H2       0.53805    0.19066    0.80741   1.00
H2       0.41266    0.04431    0.83660   1.00
H2       0.50519    0.13977    0.82789   1.00
C6       0.39582    0.10602    0.85866   1.00
C6       0.50965    0.08322    0.80176   1.00
H2       0.36673    0.13259    0.85945   1.00
H2       0.49300    0.07576    0.78594   1.00
C6       0.38624    0.06797    0.87928   1.00
C6       0.58366    0.09436    0.80232   1.00
H2       0.44912    0.14624    0.85744   1.00
H2       0.47560    0.03496    0.80930   1.00
C6       0.30996    0.01723    0.88376   1.00
C6       0.63350    0.15615    0.78915   1.00
C6       0.42652    0.02928    0.87972   1.00
C6       0.61151    0.10460    0.82427   1.00
C6       0.41378    0.12157    0.89662   1.00
C6       0.58196    0.02996    0.79348   1.00
H2       0.27990    0.04278    0.88324   1.00
H2       0.61471    0.15100    0.77362   1.00
H2       0.28835    -0.02435   0.87282   1.00
H2       0.64040    0.20388    0.79525   1.00
H2       0.30343    -0.00550   0.89878   1.00
H2       0.68373    0.16062    0.78849   1.00
H2       0.42349    0.00702    0.89464   1.00
H2       0.66105    0.10742    0.82464   1.00
H2       0.40607    -0.01221   0.86872   1.00
H2       0.61815    0.15185    0.83074   1.00
H2       0.48018    0.06358    0.87619   1.00
H2       0.57663    0.06245    0.83397   1.00
H2       0.38648    0.14993    0.89711   1.00
H2       0.56329    0.02081    0.77787   1.00
H2       0.40779    0.09737    0.91138   1.00
H2       0.63270    0.03548    0.79342   1.00
H2       0.46789    0.15813    0.89453   1.00
H2       0.54862    -0.01527   0.80239   1.00
C4       0.86623    0.17146    0.79787   1.00
C4       0.84286    0.20028    0.78277   1.00
C3       0.85355    0.10326    0.79665   1.00
C3       0.81154    0.16556    0.76440   1.00
C3       0.90372    0.21160    0.81496   1.00
C3       0.85078    0.26635    0.78590   1.00
C2       0.91635    0.11421    0.82787   1.00
C2       0.79254    0.25707    0.75269   1.00
C3       0.87807    0.07550    0.81111   1.00
C3       0.78681    0.19282    0.74984   1.00
C3       0.92813    0.18155    0.82930   1.00
C3       0.82455    0.29215    0.77075   1.00
H1       0.82542    0.07097    0.78531   1.00
H1       0.80614    0.11944    0.76082   1.00
C5       0.91563    0.27962    0.81746   1.00
C5       0.88446    0.30499    0.80370   1.00
H1       0.86741    0.02608    0.80932   1.00
H1       0.76449    0.16510    0.73695   1.00
H1       0.95537    0.20864    0.84158   1.00
H1       0.82880    0.33873    0.77250   1.00
C6       0.96147    0.32395    0.83442   1.00
C6       0.88602    0.37152    0.80785   1.00
H2       1.00645    0.31826    0.83516   1.00
H2       0.83579    0.36492    0.80476   1.00
H2       0.98396    0.37788    0.83093   1.00
H2       0.89182    0.38377    0.82392   1.00
C6       0.92430    0.30927    0.85542   1.00
C6       0.94335    0.43335    0.79581   1.00
H2       0.89334    0.25420    0.85773   1.00
H2       0.94426    0.41813    0.78013   1.00
C6       0.96959    0.34068    0.87475   1.00
C6       0.94038    0.50094    0.79534   1.00
H2       0.88790    0.32752    0.85463   1.00
H2       0.99239    0.44468    0.80223   1.00
C6       1.01541    0.30903    0.87885   1.00
C6       0.87720    0.49196    0.78350   1.00
C6       1.01494    0.41914    0.87301   1.00
C6       0.93979    0.52716    0.81700   1.00
C6       0.92206    0.32487    0.89338   1.00
C6       1.00489    0.55645    0.78425   1.00
H2       0.98499    0.25351    0.87983   1.00
H2       0.87553    0.47242    0.76823   1.00
H2       1.05305    0.32177    0.86689   1.00
H2       0.82989    0.45662    0.79116   1.00
H2       1.04322    0.32774    0.89309   1.00
H2       0.87809    0.54040    0.78204   1.00
H2       1.04262    0.44105    0.88710   1.00
H2       0.94265    0.57671    0.81650   1.00
H2       1.05258    0.43299    0.86097   1.00
H2       0.89307    0.49209    0.82500   1.00
H2       0.98405    0.44258    0.86969   1.00
H2       0.98301    0.53256    0.82580   1.00
H2       0.88935    0.26995    0.89543   1.00
H2       1.00741    0.54075    0.76877   1.00
H2       0.95140    0.34544    0.90731   1.00
H2       1.00494    0.60463    0.78341   1.00
H2       0.88932    0.34712    0.89158   1.00
H2       1.05127    0.56612    0.79214   1.00
C4       0.01833    0.49826    0.36583   1.00
C4       -0.03409   0.47399    0.38087   1.00
C3       0.02168    0.45462    0.35087   1.00
C3       -0.09067   0.40623    0.38071   1.00
C3       0.06987    0.56870    0.36553   1.00
C3       -0.03069   0.51852    0.39678   1.00
C2       0.12238    0.54791    0.33480   1.00
C2       -0.13839   0.42383    0.41183   1.00
C3       0.07185    0.47862    0.33575   1.00
C3       -0.14111   0.38169    0.39575   1.00
C3       0.11986    0.59117    0.34982   1.00
C3       -0.08289   0.49144    0.41187   1.00
H1       -0.01183   0.40362    0.35052   1.00
H1       -0.09772   0.37236    0.36953   1.00
C5       0.07084    0.61453    0.38072   1.00
C5       0.02350    0.58813    0.39727   1.00
H1       0.07131    0.44459    0.32535   1.00
H1       -0.18046   0.33222    0.39481   1.00
H1       0.15705    0.64097    0.34902   1.00
H1       -0.08197   0.52139    0.42349   1.00
C6       0.12118    0.69014    0.37896   1.00
C6       0.03049    0.63251    0.41532   1.00
H2       0.12260    0.70598    0.36327   1.00
H2       0.02272    0.60337    0.42920   1.00
H2       0.10324    0.72045    0.38679   1.00
H2       0.08266    0.67384    0.41721   1.00
C6       0.19412    0.71055    0.38697   1.00
C6       -0.01806   0.66313    0.41424   1.00
H2       0.20856    0.67399    0.38145   1.00
H2       -0.06885   0.62362    0.40942   1.00
C6       0.25370    0.78388    0.38184   1.00
C6       -0.02643   0.69698    0.43391   1.00
H2       0.19097    0.70462    0.40344   1.00
H2       0.00039    0.70109    0.40211   1.00
C6       0.26893    0.79303    0.35876   1.00
C6       -0.06268   0.64384    0.45103   1.00
C6       0.23824    0.83958    0.38934   1.00
C6       0.04317    0.75457    0.44180   1.00
C6       0.31924    0.79489    0.39275   1.00
C6       -0.07144   0.72893    0.42884   1.00
H2       0.27897    0.75375    0.35292   1.00
H2       -0.11154   0.60188    0.44583   1.00
H2       0.22635    0.79010    0.35024   1.00
H2       -0.03178   0.62231    0.45622   1.00
H2       0.31350    0.84256    0.35549   1.00
H2       -0.07251   0.66700    0.46416   1.00
H2       0.28200    0.89046    0.38700   1.00
H2       0.03637    0.78103    0.45464   1.00
H2       0.19527    0.83707    0.38112   1.00
H2       0.07517    0.73411    0.44690   1.00
H2       0.22593    0.83342    0.40548   1.00
H2       0.07039    0.79195    0.42990   1.00
H2       0.33286    0.75720    0.38782   1.00
H2       -0.12159   0.69018    0.42339   1.00
H2       0.36252    0.84537    0.38951   1.00
H2       -0.07915   0.75287    0.44218   1.00
H2       0.31216    0.79044    0.40916   1.00
H2       -0.04785   0.76793    0.41712   1.00
C4       0.48019    0.98152    0.36588   1.00
C4       0.50831    1.03384    0.38095   1.00
C3       0.43571    0.98005    0.35035   1.00
C3       0.49977    1.09204    0.38030   1.00
C3       0.49653    0.92815    0.36614   1.00
C3       0.54667    1.02868    0.39739   1.00
C2       0.42595    0.87759    0.33481   1.00
C2       0.56230    1.13802    0.41194   1.00
C3       0.40963    0.92993    0.33521   1.00
C3       0.52560    1.14243    0.39535   1.00
C3       0.46921    0.87828    0.35038   1.00
C3       0.57180    1.08090    0.41247   1.00
H1       0.42005    1.01496    0.34957   1.00
H1       0.47505    1.10034    0.36875   1.00
C5       0.53873    0.92531    0.38188   1.00
C5       0.55940    0.97274    0.39840   1.00
H1       0.37803    0.93187    0.32439   1.00
H1       0.51746    1.18300    0.39405   1.00
H1       0.48006    0.83981    0.34997   1.00
H1       0.59890    1.07877    0.42446   1.00
C6       0.56150    0.87289    0.38075   1.00
C6       0.59373    0.96407    0.41696   1.00
H2       0.57723    0.87082    0.36527   1.00
H2       0.57168    0.97291    0.43051   1.00
H2       0.60859    0.88918    0.38909   1.00
H2       0.58073    0.91130    0.41904   1.00
C6       0.50621    0.80067    0.38853   1.00
C6       0.67331    1.01030    0.41660   1.00
H2       0.45633    0.78807    0.38246   1.00
H2       0.68699    1.06164    0.41162   1.00
C6       0.51769    0.73931    0.38395   1.00
C6       0.71283    1.01710    0.43675   1.00
H2       0.50185    0.80403    0.40494   1.00
H2       0.69290    0.99065    0.40484   1.00
C6       0.51359    0.72400    0.36089   1.00
C6       0.69600    1.05481    0.45341   1.00
C6       0.58712    0.75212    0.39226   1.00
C6       0.69731    0.94660    0.44490   1.00
C6       0.46045    0.67473    0.39455   1.00
C6       0.79051    1.05980    0.43239   1.00
H2       0.46557    0.71580    0.35450   1.00
H2       0.70536    1.10436    0.44801   1.00
H2       0.55507    0.76577    0.35263   1.00
H2       0.64288    1.02548    0.45812   1.00
H2       0.51691    0.67832    0.35797   1.00
H2       0.72726    1.06348    0.46689   1.00
H2       0.59250    0.70718    0.39028   1.00
H2       0.72874    0.95217    0.45811   1.00
H2       0.62937    0.79426    0.38430   1.00
H2       0.64412    0.91616    0.44951   1.00
H2       0.59191    0.76444    0.40838   1.00
H2       0.70737    0.91839    0.43330   1.00
H2       0.41023    0.66297    0.38905   1.00
H2       0.80435    1.11048    0.42678   1.00
H2       0.46601    0.63028    0.39168   1.00
H2       0.82036    1.06637    0.44607   1.00
H2       0.46155    0.68187    0.41095   1.00
H2       0.80585    1.03507    0.42101   1.00
C4       0.50135    0.51982    0.36588   1.00
C4       0.52556    0.49170    0.38094   1.00
C3       0.54439    0.56439    0.35037   1.00
C3       0.59233    0.50033    0.38031   1.00
C3       0.43161    0.50338    0.36611   1.00
C3       0.48199    0.45323    0.39736   1.00
C2       0.45167    0.57406    0.33481   1.00
C2       0.57575    0.43770    0.41194   1.00
C3       0.52035    0.59048    0.33523   1.00
C3       0.61689    0.47450    0.39537   1.00
C3       0.40906    0.53071    0.35036   1.00
C3       0.50909    0.42811    0.41245   1.00
H1       0.59498    0.58012    0.34960   1.00
H1       0.62539    0.52514    0.36878   1.00
C5       0.38654    0.46108    0.38184   1.00
C5       0.41329    0.44040    0.39836   1.00
H1       0.55391    0.62214    0.32442   1.00
H1       0.66563    0.48271    0.39408   1.00
H1       0.35973    0.51980    0.34994   1.00
H1       0.47982    0.40093    0.42443   1.00
C6       0.31133    0.43822    0.38069   1.00
C6       0.37024    0.40596    0.41691   1.00
H2       0.29361    0.42254    0.36520   1.00
H2       0.40107    0.42799    0.43047   1.00
H2       0.28056    0.39109    0.38900   1.00
H2       0.33041    0.41888    0.41897   1.00
C6       0.29428    0.49342    0.38848   1.00
C6       0.33699    0.32639    0.41651   1.00
H2       0.33154    0.54334    0.38243   1.00
H2       0.37471    0.31280    0.41154   1.00
C6       0.22142    0.48185    0.38387   1.00
C6       0.30423    0.28678    0.43664   1.00
H2       0.30193    0.49772    0.40489   1.00
H2       0.29778    0.30680    0.40474   1.00
C6       0.21028    0.48602    0.36082   1.00
C6       0.35871    0.30361    0.45333   1.00
C6       0.16483    0.41235    0.39215   1.00
C6       0.24915    0.30217    0.44478   1.00
C6       0.21395    0.53899    0.39449   1.00
C6       0.26934    0.20911    0.43226   1.00
H2       0.25009    0.53409    0.35444   1.00
H2       0.39897    0.29434    0.44793   1.00
H2       0.21068    0.44461    0.35254   1.00
H2       0.38242    0.35671    0.45806   1.00
H2       0.16126    0.48263    0.35788   1.00
H2       0.33610    0.27229    0.46680   1.00
H2       0.11449    0.40691    0.39016   1.00
H2       0.22326    0.27067    0.45798   1.00
H2       0.16481    0.37016    0.38419   1.00
H2       0.27180    0.35533    0.44942   1.00
H2       0.17231    0.40751    0.40828   1.00
H2       0.21090    0.29210    0.43318   1.00
H2       0.25238    0.58925    0.38901   1.00
H2       0.30626    0.19536    0.42666   1.00
H2       0.16391    0.53337    0.39160   1.00
H2       0.24604    0.17920    0.44593   1.00
H2       0.21992    0.53783    0.41088   1.00
H2       0.22932    0.19378    0.42087   1.00
C4       0.16654    0.31417    0.19943   1.00
C4       0.19436    0.36819    0.21397   1.00
C3       0.09739    0.26037    0.20013   1.00
C3       0.15338    0.37612    0.22892   1.00
C3       0.20876    0.31304    0.18348   1.00
C3       0.26577    0.41666    0.21378   1.00
C2       0.10931    0.20674    0.16945   1.00
C2       0.25108    0.47542    0.24403   1.00
C3       0.06945    0.20843    0.18557   1.00
C3       0.18079    0.42784    0.24356   1.00
C3       0.17823    0.25945    0.16888   1.00
C3       0.29174    0.46835    0.22902   1.00
H1       0.06492    0.25653    0.21138   1.00
H1       0.10196    0.34501    0.22959   1.00
C5       0.27950    0.36423    0.18247   1.00
C5       0.30914    0.41301    0.19857   1.00
H1       0.01915    0.17125    0.18688   1.00
H1       0.14855    0.43064    0.25398   1.00
H1       0.20649    0.25718    0.15724   1.00
H1       0.34231    0.50346    0.22946   1.00
C6       0.32169    0.36659    0.16435   1.00
C6       0.38555    0.46006    0.19985   1.00
H2       0.29221    0.35906    0.15056   1.00
H2       0.40188    0.46210    0.21551   1.00
H2       0.36492    0.41742    0.16196   1.00
H2       0.41312    0.43871    0.19217   1.00
C6       0.34807    0.31458    0.16586   1.00
C6       0.40960    0.53308    0.19117   1.00
H2       0.30686    0.26535    0.17115   1.00
H2       0.37562    0.55098    0.19656   1.00
C6       0.37898    0.30163    0.14625   1.00
C6       0.48463    0.59016    0.19572   1.00
H2       0.38666    0.33234    0.17780   1.00
H2       0.40267    0.52850    0.17473   1.00
C6       0.32425    0.26601    0.12950   1.00
C6       0.49588    0.60766    0.21865   1.00
C6       0.43870    0.36874    0.13772   1.00
C6       0.53690    0.56970    0.18834   1.00
C6       0.40713    0.25361    0.15172   1.00
C6       0.49896    0.65587    0.18422   1.00
H2       0.28083    0.21897    0.13515   1.00
H2       0.45901    0.62125    0.22441   1.00
H2       0.30522    0.29877    0.12403   1.00
H2       0.49074    0.56484    0.22755   1.00
H2       0.34514    0.25295    0.11645   1.00
H2       0.54684    0.65065    0.22149   1.00
H2       0.46300    0.35861    0.12493   1.00
H2       0.58905    0.61167    0.19026   1.00
H2       0.42078    0.40256    0.13234   1.00
H2       0.53212    0.52642    0.19695   1.00
H2       0.47731    0.39555    0.14935   1.00
H2       0.52915    0.55574    0.17233   1.00
H2       0.36673    0.20505    0.15764   1.00
H2       0.46380    0.67295    0.18904   1.00
H2       0.42890    0.24266    0.13845   1.00
H2       0.55074    0.69746    0.18704   1.00
H2       0.44704    0.27656    0.16321   1.00
H2       0.49319    0.64714    0.16788   1.00
C4       0.69407    0.86681    0.20192   1.00
C4       0.64379    0.84183    0.21760   1.00
C3       0.69062    0.90376    0.18490   1.00
C3       0.59066    0.85811    0.21848   1.00
C3       0.75025    0.85478    0.20303   1.00
C3       0.64600    0.79893    0.23315   1.00
C2       0.79748    0.92027    0.17069   1.00
C2       0.54013    0.78862    0.24876   1.00
C3       0.74085    0.93001    0.16980   1.00
C3       0.54016    0.83211    0.23351   1.00
C3       0.80053    0.88271    0.18739   1.00
C3       0.59339    0.77321    0.24812   1.00
H1       0.65112    0.91240    0.18273   1.00
H1       0.58706    0.89002    0.20836   1.00
C5       0.75499    0.81547    0.21935   1.00
C5       0.69990    0.78309    0.23355   1.00
H1       0.73554    0.95646    0.15795   1.00
H1       0.50306    0.84556    0.23325   1.00
H1       0.84146    0.87563    0.18773   1.00
H1       0.59296    0.74219    0.25933   1.00
C6       0.81827    0.80932    0.22150   1.00
C6       0.69756    0.73191    0.24878   1.00
H2       0.86317    0.85914    0.21897   1.00
H2       0.64590    0.68845    0.24939   1.00
H2       0.82593    0.79890    0.23708   1.00
H2       0.72628    0.70811    0.24358   1.00
C6       0.81789    0.75353    0.20733   1.00
C6       0.72386    0.76332    0.27034   1.00
H2       0.80049    0.75751    0.19219   1.00
H2       0.70261    0.79569    0.27446   1.00
C6       0.88634    0.75289    0.20489   1.00
C6       0.70984    0.71276    0.28831   1.00
H2       0.77915    0.70374    0.21304   1.00
H2       0.77886    0.79781    0.26927   1.00
C6       0.94129    0.81765    0.19382   1.00
C6       0.63255    0.66901    0.29301   1.00
C6       0.91471    0.74647    0.22565   1.00
C6       0.73902    0.66504    0.28397   1.00
C6       0.87256    0.69025    0.19180   1.00
C6       0.74544    0.75487    0.30762   1.00
H2       0.92242    0.82426    0.17924   1.00
H2       0.61016    0.70122    0.29582   1.00
H2       0.95653    0.86342    0.20279   1.00
H2       0.60488    0.63493    0.28049   1.00
H2       0.98712    0.81455    0.19094   1.00
H2       0.62363    0.63738    0.30642   1.00
H2       0.95969    0.74116    0.22368   1.00
H2       0.73331    0.63340    0.29714   1.00
H2       0.92965    0.79158    0.23495   1.00
H2       0.71240    0.63092    0.27134   1.00
H2       0.87648    0.70203    0.23394   1.00
H2       0.79310    0.69457    0.28019   1.00
H2       0.85307    0.69264    0.17686   1.00
H2       0.72611    0.78900    0.31149   1.00
H2       0.91907    0.68782    0.18955   1.00
H2       0.73672    0.72174    0.32066   1.00
H2       0.83510    0.64275    0.19903   1.00
H2       0.80044    0.78587    0.30540   1.00
C4       0.13395    0.82887    0.20218   1.00
C4       0.15948    0.80404    0.21784   1.00
C3       0.08600    0.78502    0.18744   1.00
C3       0.13362    0.73310    0.22116   1.00
C3       0.15674    0.90015    0.20095   1.00
C3       0.21283    0.85121    0.23084   1.00
C2       0.07974    0.87856    0.17110   1.00
C2       0.21335    0.75382    0.24886   1.00
C3       0.05940    0.80893    0.17243   1.00
C3       0.15987    0.70864    0.23612   1.00
C3       0.12811    0.92238    0.18550   1.00
C3       0.23841    0.82422    0.24582   1.00
H1       0.06913    0.73415    0.18694   1.00
H1       0.09427    0.69653    0.21297   1.00
C5       0.20708    0.94717    0.21484   1.00
C5       0.23897    0.92312    0.22878   1.00
H1       0.02476    0.77465    0.16230   1.00
H1       0.13919    0.65689    0.23770   1.00
H1       0.14270    0.97260    0.18423   1.00
H1       0.27665    0.85616    0.25526   1.00
C6       0.22532    1.02126    0.21475   1.00
C6       0.30022    0.97266    0.24117   1.00
H2       0.17870    1.02392    0.21356   1.00
H2       0.33802    0.95629    0.24099   1.00
H2       0.24508    1.04541    0.22935   1.00
H2       0.32791    1.02230    0.23390   1.00
C6       0.27787    1.06435    0.19778   1.00
C6       0.28147    0.98214    0.26336   1.00
H2       0.26352    1.03570    0.18356   1.00
H2       0.24542    0.93241    0.26979   1.00
C6       0.28893    1.13710    0.19330   1.00
C6       0.34140    1.01981    0.27882   1.00
H2       0.32699    1.06962    0.20193   1.00
H2       0.25356    1.00986    0.26250   1.00
C6       0.22408    1.13356    0.18418   1.00
C6       0.37712    0.97803    0.28343   1.00
C6       0.31038    1.18207    0.21261   1.00
C6       0.39500    1.09157    0.27112   1.00
C6       0.34703    1.17243    0.17744   1.00
C6       0.31177    1.02875    0.29908   1.00
H2       0.20696    1.10123    0.17069   1.00
H2       0.34042    0.92666    0.28860   1.00
H2       0.18223    1.11304    0.19503   1.00
H2       0.40277    0.97335    0.27008   1.00
H2       0.23374    1.18410    0.17980   1.00
H2       0.41561    1.00237    0.29526   1.00
H2       0.32269    1.23407    0.20904   1.00
H2       0.43393    1.11925    0.28261   1.00
H2       0.26935    1.16196    0.22376   1.00
H2       0.42082    1.08801    0.25761   1.00
H2       0.35513    1.18424    0.21957   1.00
H2       0.37093    1.12156    0.26735   1.00
H2       0.33411    1.14302    0.16338   1.00
H2       0.27404    0.97939    0.30531   1.00
H2       0.35638    1.22336    0.17369   1.00
H2       0.35171    1.05448    0.31045   1.00
H2       0.39466    1.17768    0.18316   1.00
H2       0.28702    1.05908    0.29690   1.00
C4       0.98178    0.50208    0.63421   1.00
C4       1.03562    0.53045    0.61961   1.00
C3       0.93886    0.43041    0.63680   1.00
C3       1.05487    0.48947    0.60811   1.00
C3       0.96961    0.54631    0.64680   1.00
C3       1.07222    0.60246    0.61620   1.00
C2       0.87506    0.44464    0.66440   1.00
C2       1.14223    0.58737    0.58937   1.00
C3       0.88732    0.40245    0.65149   1.00
C3       1.10630    0.51690    0.59337   1.00
C3       0.91686    0.51578    0.66166   1.00
C3       1.12399    0.62832    0.60098   1.00
H1       0.94299    0.39583    0.62797   1.00
H1       1.03271    0.43824    0.61015   1.00
C5       1.00928    0.61886    0.64432   1.00
C5       1.05708    0.64663    0.62791   1.00
H1       0.85830    0.35033    0.65265   1.00
H1       1.11758    0.48458    0.58553   1.00
H1       0.90697    0.54555    0.67099   1.00
H1       1.15082    0.67918    0.59802   1.00
C6       1.00076    0.66511    0.65915   1.00
C6       1.09109    0.72169    0.62267   1.00
H2       0.99827    0.64614    0.67450   1.00
H2       1.09076    0.72721    0.60626   1.00
H2       1.04628    0.71516    0.65994   1.00
H2       1.06079    0.74407    0.62761   1.00
C6       0.93786    0.67396    0.65428   1.00
C6       1.16483    0.76444    0.63163   1.00
H2       0.89386    0.62438    0.65055   1.00
H2       1.19267    0.73710    0.62927   1.00
C6       0.91508    0.70783    0.67090   1.00
C6       1.21039    0.83892    0.62357   1.00
H2       0.94933    0.70411    0.64040   1.00
H2       1.16017    0.76666    0.64807   1.00
C6       0.88742    0.66245    0.69010   1.00
C6       1.22870    0.83983    0.60086   1.00
C6       0.97414    0.77914    0.67703   1.00
C6       1.17540    0.88217    0.62650   1.00
C6       0.85644    0.71692    0.66216   1.00
C6       1.27815    0.87328    0.63576   1.00
H2       0.84635    0.61134    0.68624   1.00
H2       1.25251    0.80881    0.59822   1.00
H2       0.92725    0.65736    0.69776   1.00
H2       1.18368    0.82019    0.59124   1.00
H2       0.86731    0.68419    0.70101   1.00
H2       1.26425    0.89158    0.59576   1.00
H2       0.95649    0.80432    0.68753   1.00
H2       1.20948    0.93519    0.62219   1.00
H2       1.01490    0.77520    0.68455   1.00
H2       1.12976    0.86289    0.61714   1.00
H2       0.99550    0.81167    0.66372   1.00
H2       1.16067    0.88120    0.64231   1.00
H2       0.81304    0.66784    0.65778   1.00
H2       1.30532    0.84507    0.63402   1.00
H2       0.83843    0.74004    0.67328   1.00
H2       1.31198    0.92540    0.63058   1.00
H2       0.87325    0.74969    0.64878   1.00
H2       1.26869    0.87543    0.65190   1.00
C4       0.52002    0.01835    0.63416   1.00
C4       0.49443    -0.03552   0.61958   1.00
C3       0.49345    0.06335    0.63613   1.00
C3       0.43596    -0.05266   0.60743   1.00
C3       0.57433    0.02844    0.64740   1.00
C3       0.52787    -0.07435   0.61685   1.00
C2       0.56946    0.12522    0.66432   1.00
C2       0.44460    -0.14226   0.58938   1.00
C3       0.51709    0.11497    0.65079   1.00
C3       0.41192    -0.10414   0.59272   1.00
C3       0.59669    0.08135    0.66220   1.00
C3       0.50199    -0.12610   0.60162   1.00
H1       0.45637    0.06075    0.62684   1.00
H1       0.40825    -0.02884   0.60897   1.00
C5       0.60508    -0.01341   0.64558   1.00
C5       0.58524    -0.06136   0.62922   1.00
H1       0.49561    0.14554    0.65148   1.00
H1       0.36965    -0.11384   0.58440   1.00
H1       0.63487    0.08978    0.67197   1.00
H1       0.52468    -0.15448   0.59913   1.00
C6       0.65739    -0.00699   0.66104   1.00
C6       0.62452    -0.09778   0.62471   1.00
H2       0.63974    -0.00374   0.67616   1.00
H2       0.63201    -0.09771   0.60838   1.00
H2       0.65982    -0.05362   0.66217   1.00
H2       0.67677    -0.06906   0.63013   1.00
C6       0.73072    0.05418    0.65671   1.00
C6       0.59014    -0.17171   0.63371   1.00
H2       0.72752    0.09930    0.65264   1.00
H2       0.53527    -0.19781   0.63082   1.00
C6       0.78528    0.07508    0.67390   1.00
C6       0.61738    -0.21941   0.62631   1.00
H2       0.75000    0.04168    0.64315   1.00
H2       0.59530    -0.16722   0.65020   1.00
C6       0.76706    0.10406    0.69269   1.00
C6       0.60203    -0.23739   0.60350   1.00
C6       0.79411    0.01431    0.68054   1.00
C6       0.69503    -0.18697   0.63002   1.00
C6       0.85492    0.13206    0.66567   1.00
C6       0.58055    -0.28713   0.63847   1.00
H2       0.75939    0.14638    0.68846   1.00
H2       0.54770    -0.25940   0.60031   1.00
H2       0.72064    0.06531    0.70002   1.00
H2       0.62978    -0.19253   0.59394   1.00
H2       0.80765    0.12284    0.70401   1.00
H2       0.61692    -0.27434   0.59883   1.00
H2       0.83560    0.03054    0.69147   1.00
H2       0.71258    -0.22254   0.62616   1.00
H2       0.74788    -0.02539   0.68774   1.00
H2       0.72373    -0.14152   0.62073   1.00
H2       0.80557    -0.00796   0.66751   1.00
H2       0.70740    -0.17251   0.64590   1.00
H2       0.85166    0.17658    0.66095   1.00
H2       0.52545    -0.31253   0.63620   1.00
H2       0.89470    0.14873    0.67720   1.00
H2       0.59757    -0.32241   0.63373   1.00
H2       0.87126    0.11423    0.65260   1.00
H2       0.59057    -0.27794   0.65469   1.00
C4       0.49831    0.47997    0.63416   1.00
C4       0.47002    0.50556    0.61958   1.00
C3       0.56989    0.50663    0.63615   1.00
C3       0.51134    0.56409    0.60746   1.00
C3       0.45408    0.42559    0.64737   1.00
C3       0.39776    0.47204    0.61682   1.00
C2       0.55573    0.43054    0.66432   1.00
C2       0.41312    0.55538    0.58938   1.00
C3       0.59786    0.48299    0.65082   1.00
C3       0.48390    0.58814    0.59274   1.00
C3       0.48463    0.40323    0.66218   1.00
C3       0.37188    0.49792    0.60160   1.00
H1       0.60436    0.54376    0.62688   1.00
H1       0.56287    0.59185    0.60901   1.00
C5       0.38148    0.39476    0.64553   1.00
C5       0.35338    0.41460    0.62917   1.00
H1       0.64992    0.50453    0.65153   1.00
H1       0.51646    0.63045    0.58444   1.00
H1       0.45488    0.36499    0.67194   1.00
H1       0.32082    0.47518    0.59909   1.00
C6       0.33557    0.34235    0.66098   1.00
C6       0.27771    0.37526    0.62464   1.00
H2       0.35640    0.35996    0.67610   1.00
H2       0.27035    0.36782    0.60830   1.00
H2       0.28648    0.33985    0.66209   1.00
H2       0.25422    0.32299    0.63004   1.00
C6       0.32353    0.26908    0.65662   1.00
C6       0.23803    0.40951    0.63363   1.00
H2       0.37190    0.27236    0.65257   1.00
H2       0.26675    0.46439    0.63077   1.00
C6       0.28986    0.21443    0.67379   1.00
C6       0.16312    0.38221    0.62621   1.00
H2       0.29182    0.24982    0.64305   1.00
H2       0.23731    0.40428    0.65012   1.00
C6       0.33700    0.23264    0.69260   1.00
C6       0.16054    0.39763    0.60340   1.00
C6       0.22020    0.20548    0.68041   1.00
C6       0.11797    0.30453    0.62989   1.00
C6       0.27734    0.14487    0.66554   1.00
C6       0.13209    0.41891    0.63837   1.00
H2       0.38703    0.24040    0.68838   1.00
H2       0.19282    0.45198    0.60023   1.00
H2       0.34458    0.27901    0.69994   1.00
H2       0.17775    0.36996    0.59384   1.00
H2       0.31519    0.19200    0.70390   1.00
H2       0.10870    0.38269    0.59871   1.00
H2       0.19494    0.16394    0.69133   1.00
H2       0.06485    0.28693    0.62602   1.00
H2       0.22663    0.25165    0.68762   1.00
H2       0.13481    0.27592    0.62060   1.00
H2       0.18652    0.19403    0.66738   1.00
H2       0.12002    0.29210    0.64577   1.00
H2       0.32516    0.14821    0.66084   1.00
H2       0.16174    0.47403    0.63612   1.00
H2       0.25423    0.10504    0.67706   1.00
H2       0.07980    0.40185    0.63362   1.00
H2       0.24322    0.12854    0.65246   1.00
H2       0.13121    0.40883    0.65459   1.00
C4       0.50219    0.02907    0.13090   1.00
C4       0.47507    -0.02158   0.11532   1.00
C3       0.56364    0.04602    0.14141   1.00
C3       0.51102    -0.05360   0.10772   1.00
C3       0.46714    0.06456    0.13638   1.00
C3       0.40962    -0.04152   0.10684   1.00
C2       0.55885    0.13382    0.16169   1.00
C2       0.41886    -0.12640   0.08454   1.00
C3       0.59139    0.09700    0.15627   1.00
C3       0.48374    -0.10466   0.09287   1.00
C3       0.49730    0.11640    0.15151   1.00
C3       0.38349    -0.09398   0.09182   1.00
H1       0.59019    0.02148    0.13881   1.00
H1       0.55868    -0.04055   0.11254   1.00
C5       0.40357    0.04774    0.12693   1.00
C5       0.37226    -0.00907   0.11327   1.00
H1       0.63601    0.10699    0.16324   1.00
H1       0.51213    -0.12595   0.08809   1.00
H1       0.47414    0.14308    0.15572   1.00
H1       0.33693    -0.10986   0.08553   1.00
C6       0.37080    0.09055    0.13130   1.00
C6       0.30012    -0.03564   0.10576   1.00
H2       0.40992    0.14428    0.13102   1.00
H2       0.27263    -0.09117   0.10639   1.00
H2       0.33764    0.08795    0.11899   1.00
H2       0.27066    -0.02335   0.11619   1.00
C6       0.32944    0.07078    0.15164   1.00
C6       0.29687    -0.00897   0.08408   1.00
H2       0.35887    0.06357    0.16354   1.00
H2       0.33394    -0.01205   0.07417   1.00
C6       0.30627    0.12075    0.15997   1.00
C6       0.22635    -0.04444   0.07295   1.00
H2       0.28412    0.02075    0.14953   1.00
H2       0.31420    0.04539    0.08536   1.00
C6       0.36802    0.19004    0.16647   1.00
C6       0.20305    -0.11968   0.06760   1.00
C6       0.26321    0.13353    0.14418   1.00
C6       0.17035    -0.04188   0.08577   1.00
C6       0.26130    0.08818    0.17905   1.00
C6       0.23375    -0.00605   0.05275   1.00
H2       0.40009    0.18269    0.17738   1.00
H2       0.24200    -0.12332   0.05881   1.00
H2       0.39967    0.21774    0.15353   1.00
H2       0.19278    -0.15068   0.08118   1.00
H2       0.35122    0.22270    0.17355   1.00
H2       0.15630    -0.14250   0.05862   1.00
H2       0.24325    0.16444    0.15064   1.00
H2       0.12269    -0.06232   0.07730   1.00
H2       0.29385    0.16065    0.13100   1.00
H2       0.15979    -0.07212   0.09956   1.00
H2       0.22016    0.08543    0.13903   1.00
H2       0.18610    0.01044    0.09011   1.00
H2       0.28960    0.07874    0.19079   1.00
H2       0.27229    -0.00696   0.04301   1.00
H2       0.24418    0.12146    0.18552   1.00
H2       0.18580    -0.02926   0.04433   1.00
H2       0.21605    0.03965    0.17535   1.00
H2       0.24880    0.04716    0.05555   1.00
C4       0.98101    0.48081    0.13396   1.00
C4       1.03306    0.50879    0.11881   1.00
C3       0.98453    0.44398    0.15100   1.00
C3       1.09542    0.50816    0.12072   1.00
C3       0.92280    0.48940    0.13224   1.00
C3       1.02328    0.53885    0.10098   1.00
C2       0.87744    0.42707    0.16514   1.00
C2       1.13693    0.56235    0.08772   1.00
C3       0.93457    0.41818    0.16619   1.00
C3       1.14570    0.53378    0.10563   1.00
C3       0.87323    0.46267    0.14809   1.00
C3       1.07557    0.56403    0.08592   1.00
H1       1.02320    0.43393    0.15292   1.00
H1       1.10695    0.48968    0.13324   1.00
C5       0.91500    0.52352    0.11500   1.00
C5       0.96281    0.54354    0.09859   1.00
H1       0.94023    0.39232    0.17813   1.00
H1       1.18943    0.53157    0.10788   1.00
H1       0.83137    0.46816    0.14747   1.00
H1       1.07028    0.58535    0.07297   1.00
C6       0.85700    0.53861    0.11444   1.00
C6       0.94985    0.56879    0.07875   1.00
H2       0.85270    0.55764    0.12923   1.00
H2       0.96202    0.54529    0.06622   1.00
H2       0.86869    0.58185    0.10470   1.00
H2       0.89580    0.54964    0.07630   1.00
C6       0.78758    0.47606    0.10754   1.00
C6       0.98908    0.64850    0.07697   1.00
H2       0.78016    0.43000    0.11519   1.00
H2       1.04150    0.66898    0.08226   1.00
C6       0.72144    0.48061    0.11068   1.00
C6       0.99185    0.67997    0.05560   1.00
H2       0.79190    0.46748    0.09144   1.00
H2       0.96584    0.66785    0.08763   1.00
C6       0.70543    0.48188    0.13350   1.00
C6       1.03387    0.66392    0.04026   1.00
C6       0.72679    0.54420    0.10010   1.00
C6       0.91950    0.65448    0.04691   1.00
C6       0.66036    0.41634    0.10117   1.00
C6       1.02752    0.75870    0.05780   1.00
H2       0.70243    0.43819    0.14148   1.00
H2       1.08491    0.68030    0.04610   1.00
H2       0.74439    0.52802    0.14089   1.00
H2       1.00937    0.60956    0.03703   1.00
H2       0.65683    0.48027    0.13554   1.00
H2       1.03949    0.68996    0.02585   1.00
H2       0.67873    0.54430    0.10114   1.00
H2       0.92181    0.68039    0.03272   1.00
H2       0.76605    0.59100    0.10716   1.00
H2       0.89382    0.59995    0.04376   1.00
H2       0.73945    0.54529    0.08409   1.00
H2       0.88837    0.66388    0.05762   1.00
H2       0.65387    0.36989    0.10827   1.00
H2       1.07921    0.77944    0.06370   1.00
H2       0.61278    0.41694    0.10310   1.00
H2       1.03109    0.78311    0.04322   1.00
H2       0.66801    0.41329    0.08494   1.00
H2       0.99944    0.77335    0.06816   1.00
C4       0.51984    0.50138    0.13413   1.00
C4       0.49171    0.52559    0.11906   1.00
C3       0.56460    0.54447    0.14960   1.00
C3       0.50055    0.59244    0.11966   1.00
C3       0.50321    0.43159    0.13393   1.00
C3       0.45304    0.48195    0.10268   1.00
C2       0.57409    0.45170    0.16519   1.00
C2       0.43770    0.57578    0.08807   1.00
C3       0.59069    0.52044    0.16473   1.00
C3       0.47471    0.61701    0.10460   1.00
C3       0.53055    0.40904    0.14968   1.00
C3       0.42792    0.50904    0.08759   1.00
H1       0.58046    0.59509    0.15033   1.00
H1       0.52550    0.62557    0.13117   1.00
C5       0.46071    0.38645    0.11824   1.00
C5       0.44001    0.41317    0.10172   1.00
H1       0.62250    0.55404    0.17551   1.00
H1       0.48307    0.66580    0.10587   1.00
H1       0.51951    0.35967    0.15013   1.00
H1       0.40060    0.47972    0.07564   1.00
C6       0.43766    0.31120    0.11944   1.00
C6       0.40534    0.37001    0.08321   1.00
H2       0.42208    0.29362    0.13495   1.00
H2       0.42733    0.40072    0.06963   1.00
H2       0.39044    0.28046    0.11116   1.00
H2       0.41811    0.33007    0.08116   1.00
C6       0.49266    0.29390    0.11163   1.00
C6       0.32580    0.33696    0.08366   1.00
H2       0.54267    0.33110    0.11764   1.00
H2       0.31238    0.37482    0.08862   1.00
C6       0.48093    0.22099    0.11628   1.00
C6       0.28599    0.30411    0.06356   1.00
H2       0.49685    0.30141    0.09522   1.00
H2       0.30621    0.29785    0.09546   1.00
C6       0.48524    0.21001    0.13934   1.00
C6       0.30283    0.35850    0.04685   1.00
C6       0.41129    0.16447    0.10806   1.00
C6       0.30112    0.24884    0.05544   1.00
C6       0.53787    0.21325    0.10564   1.00
C6       0.20837    0.26945    0.06800   1.00
H2       0.53341    0.24978    0.14567   1.00
H2       0.29373    0.39888    0.05223   1.00
H2       0.44396    0.21060    0.14763   1.00
H2       0.35587    0.38204    0.04208   1.00
H2       0.48173    0.16094    0.14230   1.00
H2       0.27137    0.33584    0.03340   1.00
H2       0.40572    0.11408    0.11008   1.00
H2       0.26949    0.22290    0.04227   1.00
H2       0.36923    0.16464    0.11605   1.00
H2       0.35423    0.27133    0.05077   1.00
H2       0.40636    0.17184    0.09193   1.00
H2       0.29104    0.21065    0.06707   1.00
H2       0.58822    0.25163    0.11107   1.00
H2       0.19480    0.30651    0.07359   1.00
H2       0.53213    0.16318    0.10855   1.00
H2       0.17832    0.24609    0.05436   1.00
H2       0.53660    0.21911    0.08924   1.00
H2       0.19302    0.22950    0.07942   1.00
C4       0.69589    0.83475    0.70249   1.00
C4       0.64510    0.80735    0.71802   1.00
C3       0.71807    0.89985    0.69357   1.00
C3       0.61819    0.84590    0.72719   1.00
C3       0.72615    0.79625    0.69541   1.00
C3       0.61972    0.73889    0.72484   1.00
C2       0.80099    0.89167    0.67180   1.00
C2       0.53997    0.75089    0.74871   1.00
C3       0.76924    0.92769    0.67877   1.00
C3       0.56700    0.81854    0.74199   1.00
C3       0.77836    0.82661    0.68039   1.00
C3       0.56731    0.71283    0.73987   1.00
H1       0.69739    0.92918    0.69736   1.00
H1       0.63527    0.89552    0.72359   1.00
C5       0.70390    0.72922    0.70320   1.00
C5       0.64687    0.69853    0.71679   1.00
H1       0.78314    0.97501    0.67300   1.00
H1       0.54956    0.84891    0.74795   1.00
H1       0.80141    0.80101    0.67507   1.00
H1       0.54764    0.66424    0.74501   1.00
C6       0.74129    0.69212    0.69717   1.00
C6       0.61456    0.62400    0.72255   1.00
H2       0.79602    0.72764    0.69774   1.00
H2       0.55927    0.60086    0.72201   1.00
H2       0.73546    0.65465    0.70848   1.00
H2       0.62343    0.59484    0.71108   1.00
C6       0.71872    0.65619    0.67599   1.00
C6       0.63929    0.61246    0.74362   1.00
H2       0.71489    0.69061    0.66513   1.00
H2       0.63991    0.64882    0.75464   1.00
C6       0.76388    0.62941    0.66619   1.00
C6       0.59868    0.53954    0.75318   1.00
H2       0.66686    0.61324    0.67756   1.00
H2       0.69251    0.62563    0.74198   1.00
C6       0.83564    0.68876    0.66043   1.00
C6       0.52506    0.52111    0.75904   1.00
C6       0.77162    0.57927    0.68042   1.00
C6       0.59575    0.48428    0.73869   1.00
C6       0.72881    0.59062    0.64637   1.00
C6       0.63558    0.53835    0.77290   1.00
H2       0.83192    0.72568    0.65064   1.00
H2       0.52533    0.55976    0.76901   1.00
H2       0.86485    0.71573    0.67382   1.00
H2       0.49481    0.51689    0.74570   1.00
H2       0.86501    0.66996    0.65235   1.00
H2       0.49877    0.47229    0.76695   1.00
H2       0.79902    0.55718    0.67290   1.00
H2       0.57164    0.43442    0.74604   1.00
H2       0.80019    0.60518    0.69403   1.00
H2       0.56621    0.47974    0.72513   1.00
H2       0.72179    0.53771    0.68505   1.00
H2       0.64691    0.49679    0.73399   1.00
H2       0.72275    0.62403    0.63567   1.00
H2       0.63839    0.57606    0.78377   1.00
H2       0.75873    0.57128    0.63887   1.00
H2       0.60881    0.48847    0.78023   1.00
H2       0.67836    0.54719    0.64949   1.00
H2       0.68749    0.54965    0.76970   1.00
C4       0.13355    0.30545    0.70207   1.00
C4       0.15699    0.35775    0.71713   1.00
C3       0.14324    0.24814    0.70383   1.00
C3       0.18524    0.35287    0.73594   1.00
C3       0.09910    0.30984    0.68445   1.00
C3       0.15230    0.41754    0.71351   1.00
C2       0.08324    0.19795    0.67211   1.00
C2       0.20748    0.46497    0.74718   1.00
C3       0.11861    0.19580    0.68938   1.00
C3       0.21005    0.40491    0.75049   1.00
C3       0.07447    0.25527    0.67014   1.00
C3       0.17850    0.46953    0.72867   1.00
H1       0.16916    0.24261    0.71558   1.00
H1       0.18821    0.31101    0.73986   1.00
C5       0.09035    0.36772    0.68142   1.00
C5       0.12175    0.42410    0.69522   1.00
H1       0.12702    0.15570    0.69158   1.00
H1       0.23007    0.39839    0.76372   1.00
H1       0.04932    0.25633    0.65750   1.00
H1       0.17650    0.51298    0.72659   1.00
C6       0.04754    0.36823    0.66385   1.00
C6       0.12370    0.49057    0.69063   1.00
H2       0.00143    0.31850    0.66281   1.00
H2       0.17435    0.53288    0.69413   1.00
H2       0.02664    0.40139    0.66681   1.00
H2       0.12022    0.49740    0.67444   1.00
C6       0.08730    0.38949    0.64323   1.00
C6       0.06656    0.49779    0.70183   1.00
H2       0.11667    0.36344    0.64151   1.00
H2       0.06310    0.48138    0.71759   1.00
C6       0.04474    0.37734    0.62338   1.00
C6       0.07264    0.56977    0.70188   1.00
H2       0.12523    0.44369    0.64416   1.00
H2       0.01773    0.46147    0.69498   1.00
C6       -0.00303   0.30025    0.61915   1.00
C6       0.13539    0.62231    0.71423   1.00
C6       0.00182    0.41326    0.62427   1.00
C6       0.07699    0.59711    0.68007   1.00
C6       0.09476    0.40757    0.60521   1.00
C6       0.00800    0.56353    0.71211   1.00
H2       0.02560    0.27321    0.61877   1.00
H2       0.13441    0.60400    0.72962   1.00
H2       -0.04230   0.27654    0.63075   1.00
H2       0.18299    0.63237    0.70715   1.00
H2       -0.02892   0.29219    0.60460   1.00
H2       0.13653    0.67095    0.71536   1.00
H2       -0.02381   0.40859    0.60984   1.00
H2       0.07628    0.64495    0.68021   1.00
H2       -0.03741   0.39066    0.63593   1.00
H2       0.12404    0.60688    0.67264   1.00
H2       0.03406    0.46738    0.62765   1.00
H2       0.03411    0.56041    0.67092   1.00
H2       0.12589    0.38338    0.60377   1.00
H2       0.00289    0.54505    0.72767   1.00
H2       0.06735    0.39992    0.59094   1.00
H2       0.01006    0.61272    0.71264   1.00
H2       0.12901    0.46228    0.60711   1.00
H2       -0.03802   0.52810    0.70384   1.00
C4       0.17147    0.86624    0.70213   1.00
C4       0.20029    0.84286    0.71722   1.00
C3       0.10330    0.85361    0.70336   1.00
C3       0.16560    0.81161    0.73560   1.00
C3       0.21159    0.90366    0.68503   1.00
C3       0.26633    0.85071    0.71409   1.00
C2       0.11422    0.91636    0.67213   1.00
C2       0.25708    0.79254    0.74731   1.00
C3       0.07554    0.87814    0.68890   1.00
C3       0.19286    0.78688    0.75016   1.00
C3       0.18154    0.92807    0.67069   1.00
C3       0.29213    0.82449    0.72924   1.00
H1       0.07102    0.82554    0.71471   1.00
H1       0.11951    0.80626    0.73919   1.00
C5       0.27958    0.91551    0.68251   1.00
C5       0.30493    0.88433    0.69628   1.00
H1       0.02613    0.86753    0.69070   1.00
H1       0.16517    0.76460    0.76306   1.00
H1       0.20861    0.95527    0.65840   1.00
H1       0.33869    0.82869    0.72748   1.00
C6       0.32389    0.96128    0.66555   1.00
C6       0.37142    0.88581    0.69212   1.00
H2       0.31824    1.00628    0.66479   1.00
H2       0.36479    0.83557    0.69522   1.00
H2       0.37782    0.98374    0.66902   1.00
H2       0.38363    0.89156    0.67604   1.00
C6       0.30912    0.92405    0.64455   1.00
C6       0.43331    0.94314    0.70414   1.00
H2       0.25405    0.89313    0.64226   1.00
H2       0.41814    0.94410    0.71982   1.00
C6       0.34051    0.96929    0.62521   1.00
C6       0.50087    0.94011    0.70460   1.00
H2       0.32733    0.88762    0.64534   1.00
H2       0.44466    0.99218    0.69770   1.00
C6       0.30891    1.01514    0.62111   1.00
C6       0.49186    0.87693    0.71645   1.00
C6       0.41899    1.01458    0.62693   1.00
C6       0.52701    0.93944    0.68294   1.00
C6       0.32462    0.92170    0.60658   1.00
C6       0.55644    1.00462    0.71567   1.00
H2       0.25339    0.98477    0.62014   1.00
H2       0.47237    0.87532    0.73172   1.00
H2       0.32172    1.05282    0.63306   1.00
H2       0.45647    0.82962    0.70881   1.00
H2       0.32760    1.04292    0.60686   1.00
H2       0.54028    0.87778    0.71790   1.00
H2       0.44087    1.04222    0.61283   1.00
H2       0.57654    0.94225    0.68342   1.00
H2       0.43289    1.05226    0.63897   1.00
H2       0.49190    0.89271    0.67495   1.00
H2       0.44239    0.98366    0.63025   1.00
H2       0.53243    0.98265    0.67413   1.00
H2       0.26969    0.88902    0.60455   1.00
H2       0.54079    1.00719    0.73116   1.00
H2       0.34517    0.95100    0.59265   1.00
H2       0.60460    1.00462    0.71650   1.00
H2       0.34683    0.88892    0.60839   1.00
H2       0.56613    1.05100    0.70778   1.00
