data_IRMOF10_interpen_symm_ligand4lp_label_e_1.

_audit_creation_method             'generated by an auxiliary program of Tobunporous'

_symmetry_space_group_name_H-M     'P 1'
_symmetry_Int_Tables_number        1
_symmetry_cell_setting             triclinic

_cell_length_a                    22.6523
_cell_length_b                    22.6523
_cell_length_c                    65.9502
_cell_angle_alpha                 90.0000
_cell_angle_beta                  90.0000
_cell_angle_gamma                 120.0000

loop_
_atom_site_label
_atom_site_fract_x
_atom_site_fract_y
_atom_site_fract_z
_atom_site_occupancy
O1       0.00000    -0.00000   0.62500   1.00
Zn1      0.00000    -0.00000   0.59589   1.00
Zn1      0.94848    1.04288    0.63392   1.00
Zn1      0.09439    0.05152    0.63392   1.00
Zn1      -0.04288   0.90561    0.63392   1.00
O2       0.93860    0.02610    0.58587   1.00
O2       0.08750    0.06140    0.58587   1.00
O2       -0.02610   0.91250    0.58587   1.00
O2       0.91305    0.07161    0.61181   1.00
O2       0.00462    0.12022    0.65110   1.00
O2       0.87413    0.98074    0.65071   1.00
O2       0.15856    0.08695    0.61181   1.00
O2       0.10660    0.12587    0.65071   1.00
O2       0.11559    0.99538    0.65110   1.00
O2       -0.07161   0.84144    0.61181   1.00
O2       0.87978    0.88441    0.65110   1.00
O2       0.01926    0.89340    0.65071   1.00
C1       0.91390    0.06020    0.59358   1.00
C1       0.14630    0.08610    0.59358   1.00
C1       -0.06020   0.85370    0.59358   1.00
C1       0.06663    0.14397    0.65673   1.00
C1       0.85603    0.92267    0.65673   1.00
C1       0.07733    0.93337    0.65673   1.00
O1       -0.00000   0.00000    0.87500   1.00
Zn1      -0.00000   0.00000    0.90411   1.00
Zn1      1.04288    0.94848    0.86608   1.00
Zn1      0.05152    0.09439    0.86608   1.00
Zn1      0.90561    -0.04288   0.86608   1.00
O2       0.02610    0.93860    0.91413   1.00
O2       0.06140    0.08750    0.91413   1.00
O2       0.91250    -0.02610   0.91413   1.00
O2       0.07161    0.91305    0.88819   1.00
O2       0.12022    0.00462    0.84890   1.00
O2       0.98074    0.87413    0.84929   1.00
O2       0.08695    0.15856    0.88819   1.00
O2       0.12587    0.10660    0.84929   1.00
O2       0.99538    0.11559    0.84890   1.00
O2       0.84144    -0.07161   0.88819   1.00
O2       0.88441    0.87978    0.84890   1.00
O2       0.89340    0.01926    0.84929   1.00
C1       0.06020    0.91390    0.90642   1.00
C1       0.08610    0.14630    0.90642   1.00
C1       0.85370    -0.06020   0.90642   1.00
C1       0.14397    0.06663    0.84327   1.00
C1       0.92267    0.85603    0.84327   1.00
C1       0.93337    0.07733    0.84327   1.00
O1       0.00000    0.00000    0.37500   1.00
Zn1      0.00000    0.00000    0.40411   1.00
Zn1      0.05152    -0.04288   0.36608   1.00
Zn1      0.90561    0.94848    0.36608   1.00
Zn1      1.04288    0.09439    0.36608   1.00
O2       0.06140    -0.02610   0.41413   1.00
O2       0.91250    0.93860    0.41413   1.00
O2       0.02610    0.08750    0.41413   1.00
O2       0.08695    -0.07161   0.38819   1.00
O2       0.99538    0.87978    0.34890   1.00
O2       0.12587    0.01926    0.34929   1.00
O2       0.84144    0.91305    0.38819   1.00
O2       0.89340    0.87413    0.34929   1.00
O2       0.88441    0.00462    0.34890   1.00
O2       0.07161    0.15856    0.38819   1.00
O2       0.12022    0.11559    0.34890   1.00
O2       0.98074    0.10660    0.34929   1.00
C1       0.08610    -0.06020   0.40642   1.00
C1       0.85370    0.91390    0.40642   1.00
C1       0.06020    0.14630    0.40642   1.00
C1       0.93337    0.85603    0.34327   1.00
C1       0.14397    0.07733    0.34327   1.00
C1       0.92267    0.06663    0.34327   1.00
O1       0.00000    0.00000    0.12500   1.00
Zn1      0.00000    0.00000    0.09589   1.00
Zn1      -0.04288   0.05152    0.13392   1.00
Zn1      0.94848    0.90561    0.13392   1.00
Zn1      0.09439    1.04288    0.13392   1.00
O2       -0.02610   0.06140    0.08587   1.00
O2       0.93860    0.91250    0.08587   1.00
O2       0.08750    0.02610    0.08587   1.00
O2       -0.07161   0.08695    0.11181   1.00
O2       0.87978    0.99538    0.15110   1.00
O2       0.01926    0.12587    0.15071   1.00
O2       0.91305    0.84144    0.11181   1.00
O2       0.87413    0.89340    0.15071   1.00
O2       0.00462    0.88441    0.15110   1.00
O2       0.15856    0.07161    0.11181   1.00
O2       0.11559    0.12022    0.15110   1.00
O2       0.10660    0.98074    0.15071   1.00
C1       -0.06020   0.08610    0.09358   1.00
C1       0.91390    0.85370    0.09358   1.00
C1       0.14630    0.06020    0.09358   1.00
C1       0.85603    0.93337    0.15673   1.00
C1       0.07733    0.14397    0.15673   1.00
C1       0.06663    0.92267    0.15673   1.00
O1       0.66667    0.33333    0.95833   1.00
Zn1      0.66667    0.33333    0.92922   1.00
Zn1      0.61515    0.37621    0.96725   1.00
Zn1      0.76106    0.38485    0.96725   1.00
Zn1      -0.37621   0.23894    0.96725   1.00
O2       0.60527    0.35943    0.91920   1.00
O2       0.75417    0.39473    0.91920   1.00
O2       0.64057    0.24583    0.91920   1.00
O2       0.57972    0.40494    0.94514   1.00
O2       0.67129    0.45355    0.98443   1.00
O2       0.54080    0.31407    0.98404   1.00
O2       0.82523    0.42028    0.94514   1.00
O2       0.77327    0.45920    0.98404   1.00
O2       -0.21774   0.32871    0.98443   1.00
O2       0.59506    0.17477    0.94514   1.00
O2       0.54645    0.21774    0.98443   1.00
O2       -0.31407   0.22673    0.98404   1.00
C1       0.58057    0.39353    0.92691   1.00
C1       0.81297    0.41943    0.92691   1.00
C1       0.60647    0.18703    0.92691   1.00
C1       0.73330    0.47730    0.99006   1.00
C1       0.52270    0.25600    0.99006   1.00
C1       -0.25600   0.26670    0.99006   1.00
O1       0.66667    0.33333    0.20833   1.00
Zn1      0.66667    0.33333    0.23744   1.00
Zn1      0.70954    0.28182    0.19942   1.00
Zn1      0.71818    0.42773    0.19942   1.00
Zn1      0.57227    0.29046    0.19942   1.00
O2       0.69277    0.27193    0.24746   1.00
O2       0.72807    0.42083    0.24746   1.00
O2       0.57917    0.30723    0.24746   1.00
O2       0.73828    0.24638    0.22152   1.00
O2       0.78688    0.33796    0.18224   1.00
O2       0.64740    0.20747    0.18263   1.00
O2       0.75362    0.49189    0.22152   1.00
O2       0.79253    0.43994    0.18263   1.00
O2       0.66204    0.44893    0.18224   1.00
O2       0.50811    0.26172    0.22152   1.00
O2       0.55107    0.21312    0.18224   1.00
O2       0.56006    0.35260    0.18263   1.00
C1       0.72687    0.24723    0.23975   1.00
C1       0.75277    0.47963    0.23975   1.00
C1       0.52037    0.27313    0.23975   1.00
C1       0.81063    0.39997    0.17661   1.00
C1       0.58933    0.18937    0.17661   1.00
C1       0.60003    0.41067    0.17661   1.00
O1       0.66667    0.33333    0.70833   1.00
Zn1      0.66667    0.33333    0.73744   1.00
Zn1      0.71818    0.29046    0.69942   1.00
Zn1      0.57227    0.28182    0.69942   1.00
Zn1      0.70954    0.42773    0.69942   1.00
O2       0.72807    0.30723    0.74746   1.00
O2       0.57917    0.27193    0.74746   1.00
O2       0.69277    0.42083    0.74746   1.00
O2       0.75362    0.26172    0.72152   1.00
O2       0.66204    0.21312    0.68224   1.00
O2       0.79253    0.35260    0.68263   1.00
O2       0.50811    0.24638    0.72152   1.00
O2       0.56006    0.20747    0.68263   1.00
O2       0.55107    0.33796    0.68224   1.00
O2       0.73828    0.49189    0.72152   1.00
O2       0.78688    0.44893    0.68224   1.00
O2       0.64740    0.43994    0.68263   1.00
C1       0.75277    0.27313    0.73975   1.00
C1       0.52037    0.24723    0.73975   1.00
C1       0.72687    0.47963    0.73975   1.00
C1       0.60003    0.18937    0.67661   1.00
C1       0.81063    0.41067    0.67661   1.00
C1       0.58933    0.39997    0.67661   1.00
O1       0.66667    0.33333    0.45833   1.00
Zn1      0.66667    0.33333    0.42922   1.00
Zn1      -0.37621   0.38485    0.46725   1.00
Zn1      0.61515    0.23894    0.46725   1.00
Zn1      0.76106    0.37621    0.46725   1.00
O2       0.64057    0.39473    0.41920   1.00
O2       0.60527    0.24583    0.41920   1.00
O2       0.75417    0.35943    0.41920   1.00
O2       0.59506    0.42028    0.44514   1.00
O2       0.54645    0.32871    0.48443   1.00
O2       -0.31407   0.45920    0.48404   1.00
O2       0.57972    0.17477    0.44514   1.00
O2       0.54080    0.22673    0.48404   1.00
O2       0.67129    0.21774    0.48443   1.00
O2       0.82523    0.40494    0.44514   1.00
O2       -0.21774   0.45355    0.48443   1.00
O2       0.77327    0.31407    0.48404   1.00
C1       0.60647    0.41943    0.42691   1.00
C1       0.58057    0.18703    0.42691   1.00
C1       0.81297    0.39353    0.42691   1.00
C1       0.52270    0.26670    0.49006   1.00
C1       -0.25600   0.47730    0.49006   1.00
C1       0.73330    0.25600    0.49006   1.00
O1       0.33333    0.66667    0.29167   1.00
Zn1      0.33333    0.66667    0.26256   1.00
Zn1      0.28182    0.70954    0.30058   1.00
Zn1      0.42773    0.71818    0.30058   1.00
Zn1      0.29046    0.57227    0.30058   1.00
O2       0.27193    0.69277    0.25254   1.00
O2       0.42083    0.72807    0.25254   1.00
O2       0.30723    0.57917    0.25254   1.00
O2       0.24638    0.73828    0.27848   1.00
O2       0.33796    0.78688    0.31776   1.00
O2       0.20747    0.64740    0.31737   1.00
O2       0.49189    0.75362    0.27848   1.00
O2       0.43994    0.79253    0.31737   1.00
O2       0.44893    0.66204    0.31776   1.00
O2       0.26172    0.50811    0.27848   1.00
O2       0.21312    0.55107    0.31776   1.00
O2       0.35260    0.56006    0.31737   1.00
C1       0.24723    0.72687    0.26025   1.00
C1       0.47963    0.75277    0.26025   1.00
C1       0.27313    0.52037    0.26025   1.00
C1       0.39997    0.81063    0.32339   1.00
C1       0.18937    0.58933    0.32339   1.00
C1       0.41067    0.60003    0.32339   1.00
O1       0.33333    0.66667    0.54167   1.00
Zn1      0.33333    0.66667    0.57078   1.00
Zn1      0.37621    0.61515    0.53275   1.00
Zn1      0.38485    0.76106    0.53275   1.00
Zn1      0.23894    -0.37621   0.53275   1.00
O2       0.35943    0.60527    0.58080   1.00
O2       0.39473    0.75417    0.58080   1.00
O2       0.24583    0.64057    0.58080   1.00
O2       0.40494    0.57972    0.55486   1.00
O2       0.45355    0.67129    0.51557   1.00
O2       0.31407    0.54080    0.51596   1.00
O2       0.42028    0.82523    0.55486   1.00
O2       0.45920    0.77327    0.51596   1.00
O2       0.32871    -0.21774   0.51557   1.00
O2       0.17477    0.59506    0.55486   1.00
O2       0.21774    0.54645    0.51557   1.00
O2       0.22673    -0.31407   0.51596   1.00
C1       0.39353    0.58057    0.57309   1.00
C1       0.41943    0.81297    0.57309   1.00
C1       0.18703    0.60647    0.57309   1.00
C1       0.47730    0.73330    0.50994   1.00
C1       0.25600    0.52270    0.50994   1.00
C1       0.26670    -0.25600   0.50994   1.00
O1       0.33333    0.66667    0.04167   1.00
Zn1      0.33333    0.66667    0.07078   1.00
Zn1      0.38485    -0.37621   0.03275   1.00
Zn1      0.23894    0.61515    0.03275   1.00
Zn1      0.37621    0.76106    0.03275   1.00
O2       0.39473    0.64057    0.08080   1.00
O2       0.24583    0.60527    0.08080   1.00
O2       0.35943    0.75417    0.08080   1.00
O2       0.42028    0.59506    0.05486   1.00
O2       0.32871    0.54645    0.01557   1.00
O2       0.45920    -0.31407   0.01596   1.00
O2       0.17477    0.57972    0.05486   1.00
O2       0.22673    0.54080    0.01596   1.00
O2       0.21774    0.67129    0.01557   1.00
O2       0.40494    0.82523    0.05486   1.00
O2       0.45355    -0.21774   0.01557   1.00
O2       0.31407    0.77327    0.01596   1.00
C1       0.41943    0.60647    0.07309   1.00
C1       0.18703    0.58057    0.07309   1.00
C1       0.39353    0.81297    0.07309   1.00
C1       0.26670    0.52270    0.00994   1.00
C1       0.47730    -0.25600   0.00994   1.00
C1       0.25600    0.73330    0.00994   1.00
O1       0.33333    0.66667    0.79167   1.00
Zn1      0.33333    0.66667    0.76256   1.00
Zn1      0.29046    0.71818    0.80058   1.00
Zn1      0.28182    0.57227    0.80058   1.00
Zn1      0.42773    0.70954    0.80058   1.00
O2       0.30723    0.72807    0.75254   1.00
O2       0.27193    0.57917    0.75254   1.00
O2       0.42083    0.69277    0.75254   1.00
O2       0.26172    0.75362    0.77848   1.00
O2       0.21312    0.66204    0.81776   1.00
O2       0.35260    0.79253    0.81737   1.00
O2       0.24638    0.50811    0.77848   1.00
O2       0.20747    0.56006    0.81737   1.00
O2       0.33796    0.55107    0.81776   1.00
O2       0.49189    0.73828    0.77848   1.00
O2       0.44893    0.78688    0.81776   1.00
O2       0.43994    0.64740    0.81737   1.00
C1       0.27313    0.75277    0.76025   1.00
C1       0.24723    0.52037    0.76025   1.00
C1       0.47963    0.72687    0.76025   1.00
C1       0.18937    0.60003    0.82339   1.00
C1       0.41067    0.81063    0.82339   1.00
C1       0.39997    0.58933    0.82339   1.00
C4       -0.17800   0.62988    0.53855   1.00
C4       -0.15127   0.68501    0.55272   1.00
C3       -0.16282   0.57602    0.53968   1.00
C3       -0.11350   0.68646    0.57019   1.00
C3       -0.22157   0.62775    0.52253   1.00
C3       -0.16232   0.74122    0.54956   1.00
C2       -0.23470   0.51662    0.51051   1.00
C2       -0.09432   0.79803    0.58085   1.00
C3       -0.19051   0.52089    0.52617   1.00
C3       -0.08556   0.74133    0.58379   1.00
C3       -0.24902   0.57052    0.50915   1.00
C3       -0.13268   0.79627    0.56371   1.00
H1       -0.13053   0.57516    0.55024   1.00
H1       -0.10545   0.64739    0.57379   1.00
C5       -0.23640   0.68196    0.52010   1.00
C5       -0.20236   0.74131    0.53272   1.00
H1       -0.17778   0.48353    0.52784   1.00
H1       -0.05860   0.73941    0.59605   1.00
H1       -0.28057   0.56696    0.49765   1.00
H1       -0.13903   0.83735    0.56190   1.00
C6       -0.28824   0.67551    0.50445   1.00
C6       -0.20754   0.80421    0.52834   1.00
H2       -0.33224   0.62418    0.50513   1.00
H2       -0.15722   0.84928    0.52989   1.00
H2       -0.31098   0.70639    0.50838   1.00
H2       -0.21884   0.80702    0.51247   1.00
C6       -0.25819   0.69439    0.48246   1.00
C6       -0.26184   0.80933    0.54182   1.00
H2       -0.22676   0.67121    0.47945   1.00
H2       -0.25712   0.79673    0.55752   1.00
C6       -0.30981   0.67532    0.46449   1.00
C6       -0.26114   0.87882    0.54190   1.00
H2       -0.22299   0.74936    0.48204   1.00
H2       -0.31225   0.76942    0.53690   1.00
C6       -0.35482   0.59695    0.46197   1.00
C6       -0.19524   0.93649    0.55177   1.00
C6       -0.35631   0.70678    0.46728   1.00
C6       -0.26849   0.90065    0.52021   1.00
C6       -0.26884   0.70409    0.44454   1.00
C6       -0.32254   0.87026    0.55468   1.00
H2       -0.32347   0.57305    0.46030   1.00
H2       -0.18798   0.92218    0.56699   1.00
H2       -0.38819   0.57381    0.47498   1.00
H2       -0.15025   0.94813    0.54284   1.00
H2       -0.38727   0.58418    0.44858   1.00
H2       -0.19733   0.98346    0.55303   1.00
H2       -0.38870   0.69730    0.45401   1.00
H2       -0.27286   0.94652    0.52057   1.00
H2       -0.38969   0.68473    0.48037   1.00
H2       -0.22419   0.91190    0.51095   1.00
H2       -0.32586   0.76179    0.46951   1.00
H2       -0.31378   0.86033    0.51276   1.00
H2       -0.23561   0.68288    0.44174   1.00
H2       -0.31944   0.85551    0.57024   1.00
H2       -0.30274   0.69165    0.43150   1.00
H2       -0.32400   0.91770    0.55531   1.00
H2       -0.23702   0.75949    0.44522   1.00
H2       -0.37077   0.83111    0.54824   1.00
C4       0.36737    0.18794    0.53764   1.00
C4       0.31118    0.15940    0.55143   1.00
C3       0.43501    0.23583    0.54388   1.00
C3       0.31976    0.17115    0.57274   1.00
C3       0.35643    0.16851    0.51673   1.00
C3       0.24346    0.11729    0.54391   1.00
C2       0.48161    0.24315    0.50995   1.00
C2       0.19728    0.10446    0.57924   1.00
C3       0.49052    0.26240    0.53051   1.00
C3       0.26462    0.14486    0.58624   1.00
C3       0.41439    0.19646    0.50364   1.00
C3       0.18865    0.09181    0.55814   1.00
H1       0.44637    0.25372    0.55833   1.00
H1       0.36647    0.19869    0.57928   1.00
C5       0.28903    0.12271    0.50938   1.00
C5       0.23186    0.10131    0.52271   1.00
H1       0.53808    0.29654    0.53597   1.00
H1       0.27419    0.15542    0.60143   1.00
H1       0.40873    0.18351    0.48871   1.00
H1       0.13974    0.06208    0.55336   1.00
C6       0.27920    0.09697    0.48775   1.00
C6       0.15959    0.06282    0.51467   1.00
H2       0.31782    0.08324    0.48422   1.00
H2       0.13008    0.08367    0.52149   1.00
H2       0.23246    0.04830    0.48603   1.00
H2       0.15733    0.07315    0.49868   1.00
C6       0.27930    0.14869    0.47193   1.00
C6       0.12458    -0.01622   0.51787   1.00
H2       0.32079    0.20005    0.47540   1.00
H2       0.13514    -0.02686   0.53321   1.00
C6       0.28480    0.13461    0.44895   1.00
C6       0.04575    -0.05949   0.51435   1.00
H2       0.23252    0.15072    0.47411   1.00
H2       0.14945    -0.03538   0.50777   1.00
C6       0.35495    0.14169    0.44387   1.00
C6       0.00569    -0.04304   0.53031   1.00
C6       0.22727    0.06290    0.44249   1.00
C6       0.02576    -0.04844   0.49280   1.00
C6       0.27774    0.18825    0.43612   1.00
C6       0.02341    -0.13614   0.51656   1.00
H2       0.39672    0.19142    0.44856   1.00
H2       0.01951    -0.04928   0.54571   1.00
H2       0.36159    0.10266    0.45144   1.00
H2       0.01579    0.00909    0.52879   1.00
H2       0.36009    0.13647    0.42761   1.00
H2       -0.04918   -0.07672   0.52860   1.00
H2       0.22864    0.05547    0.42617   1.00
H2       -0.02853   -0.08240   0.48999   1.00
H2       0.23263    0.02305    0.45006   1.00
H2       0.03612    0.00371    0.49090   1.00
H2       0.17734    0.05606    0.44629   1.00
H2       0.05433    -0.05830   0.48128   1.00
H2       0.31771    0.23990    0.43995   1.00
H2       0.03575    -0.14687   0.53163   1.00
H2       0.28171    0.18079    0.41992   1.00
H2       -0.03148   -0.16851   0.51435   1.00
H2       0.22855    0.18488    0.43873   1.00
H2       0.04896    -0.15126   0.50540   1.00
C4       0.81257    0.17369    0.53544   1.00
C4       0.83876    0.14304    0.54898   1.00
C3       0.83516    0.24478    0.53584   1.00
C3       0.89425    0.18221    0.56237   1.00
C3       0.76176    0.13243    0.52087   1.00
C3       0.80900    0.07052    0.54933   1.00
C2       0.76210    0.23630    0.50741   1.00
C2       0.88958    0.08093    0.57708   1.00
C3       0.81103    0.27530    0.52220   1.00
C3       0.91875    0.15221    0.57608   1.00
C3       0.73878    0.16556    0.50718   1.00
C3       0.83520    0.04195    0.56359   1.00
H1       0.86949    0.27694    0.54618   1.00
H1       0.91939    0.23404    0.56253   1.00
C5       0.73496    0.06012    0.52030   1.00
C5       0.75490    0.02858    0.53562   1.00
H1       0.82956    0.32688    0.52322   1.00
H1       0.95874    0.18327    0.58539   1.00
H1       0.70303    0.13802    0.49652   1.00
H1       0.81507    -0.00943   0.56439   1.00
C6       0.68667    0.01822    0.50345   1.00
C6       0.71909    -0.04828   0.53762   1.00
H2       0.70579    0.04503    0.48911   1.00
H2       0.70930    -0.06192   0.55362   1.00
H2       0.68790    -0.02848   0.50072   1.00
H2       0.66767    -0.07246   0.53150   1.00
C6       0.61112    -0.00013   0.50742   1.00
C6       0.75889    -0.08043   0.52734   1.00
H2       0.61028    0.04485    0.51305   1.00
H2       0.81304    -0.05012   0.53112   1.00
C6       0.55990    -0.02984   0.48926   1.00
C6       0.73500    -0.15678   0.53225   1.00
H2       0.59136    -0.03689   0.51986   1.00
H2       0.75621    -0.07536   0.51094   1.00
C6       0.57827    0.02354    0.47213   1.00
C6       0.74745    -0.16663   0.55482   1.00
C6       0.55686    -0.09463   0.48037   1.00
C6       0.65864    -0.20412   0.52712   1.00
C6       0.48757    -0.04985   0.49708   1.00
C6       0.77721    -0.17930   0.51911   1.00
H2       0.58191    0.07036    0.47799   1.00
H2       0.80074    -0.13306   0.55901   1.00
H2       0.62683    0.03682    0.46507   1.00
H2       0.71603    -0.15571   0.56491   1.00
H2       0.53971    0.00399    0.46019   1.00
H2       0.73508    -0.21901   0.55776   1.00
H2       0.51755    -0.11768   0.46870   1.00
H2       0.64374    -0.25761   0.52922   1.00
H2       0.60528    -0.08250   0.47339   1.00
H2       0.62631    -0.19352   0.53694   1.00
H2       0.54541    -0.13251   0.49221   1.00
H2       0.64821    -0.19714   0.51142   1.00
H2       0.48673    -0.00563   0.50334   1.00
H2       0.83163    -0.14786   0.52230   1.00
H2       0.44997    -0.07050   0.48488   1.00
H2       0.76267    -0.23229   0.52210   1.00
H2       0.47110    -0.08851   0.50895   1.00
H2       0.76948    -0.17483   0.50297   1.00
C4       0.63968    -0.17083   0.96486   1.00
C4       0.69618    -0.13958   0.95122   1.00
C3       0.60553    -0.24190   0.96934   1.00
C3       0.72696    -0.17562   0.94277   1.00
C3       0.61566    -0.13026   0.97452   1.00
C3       0.72369    -0.06963   0.94566   1.00
C2       0.52756    -0.23349   0.99322   1.00
C2       0.80829    -0.07740   0.92284   1.00
C3       0.55140    -0.27233   0.98316   1.00
C3       0.78108    -0.14570   0.92894   1.00
C3       0.56062    -0.16315   0.98857   1.00
C3       0.77858    -0.04117   0.93144   1.00
H1       0.61827    -0.27434   0.96258   1.00
H1       0.71165    -0.22477   0.94651   1.00
C5       0.64613    -0.05899   0.96997   1.00
C5       0.69672    -0.02992   0.95432   1.00
H1       0.52910    -0.32379   0.98579   1.00
H1       0.80085    -0.17451   0.92333   1.00
H1       0.54243    -0.13593   0.99585   1.00
H1       0.79920    0.00827    0.92701   1.00
C6       0.62510    -0.01531   0.98188   1.00
C6       0.72137    0.04175    0.94669   1.00
H2       0.62186    -0.02834   0.99791   1.00
H2       0.72421    0.04199    0.93018   1.00
H2       0.66498    0.03797    0.98196   1.00
H2       0.68367    0.05734    0.94916   1.00
C6       0.55728    -0.02063   0.97401   1.00
C6       0.79074    0.09613    0.95637   1.00
H2       0.51970    -0.07403   0.97106   1.00
H2       0.82602    0.07639    0.95661   1.00
C6       0.52266    0.00986    0.98773   1.00
C6       0.82861    0.16866    0.94647   1.00
H2       0.56782    0.00445    0.95923   1.00
H2       0.78117    0.10183    0.97230   1.00
C6       0.49607    -0.03030   1.00788   1.00
C6       0.85387    0.16655    0.92475   1.00
C6       0.57198    0.08609    0.99255   1.00
C6       0.78272    0.20136    0.94569   1.00
C6       0.46036    0.00448    0.97620   1.00
C6       0.89221    0.21536    0.95953   1.00
H2       0.46194    -0.08455   1.00500   1.00
H2       0.88554    0.14270    0.92474   1.00
H2       0.53776    -0.02519   1.01735   1.00
H2       0.81143    0.13793    0.91441   1.00
H2       0.46791    -0.01169   1.01670   1.00
H2       0.88423    0.21781    0.91852   1.00
H2       0.54596    0.10810    1.00089   1.00
H2       0.81109    0.25370    0.94011   1.00
H2       0.61450    0.09235    1.00187   1.00
H2       0.73950    0.17302    0.93555   1.00
H2       0.59257    0.11530    0.97862   1.00
H2       0.76307    0.20217    0.96073   1.00
H2       0.42350    -0.04855   0.97261   1.00
H2       0.92676    0.19490    0.96040   1.00
H2       0.43414    0.02477    0.98525   1.00
H2       0.92068    0.26661    0.95313   1.00
H2       0.47603    0.03302    0.96200   1.00
H2       0.87758    0.22002    0.97496   1.00
C4       0.18790    0.36732    0.96238   1.00
C4       0.15936    0.31112    0.94859   1.00
C3       0.23539    0.43505    0.95610   1.00
C3       0.17069    0.31974    0.92726   1.00
C3       0.16888    0.35631    0.98331   1.00
C3       0.11770    0.24336    0.95613   1.00
C2       0.24308    0.48157    0.99006   1.00
C2       0.10444    0.19722    0.92078   1.00
C3       0.26195    0.49056    0.96947   1.00
C3       0.14441    0.26459    0.91376   1.00
C3       0.19679    0.41427    0.99641   1.00
C3       0.09221    0.18855    0.94190   1.00
H1       0.25298    0.44648    0.94163   1.00
H1       0.19789    0.36647    0.92071   1.00
C5       0.12349    0.28885    0.99070   1.00
C5       0.10214    0.23171    0.97735   1.00
H1       0.29579    0.53818    0.96398   1.00
H1       0.15465    0.27419    0.89856   1.00
H1       0.18413    0.40856    1.01136   1.00
H1       0.06278    0.13962    0.94670   1.00
C6       0.09815    0.27890    1.01237   1.00
C6       0.06414    0.15944    0.98540   1.00
H2       0.08420    0.31730    1.01597   1.00
H2       0.08512    0.13014    0.97850   1.00
H2       0.04965    0.23200    1.01415   1.00
H2       0.07482    0.15725    1.00137   1.00
C6       0.15034    0.27934    1.02808   1.00
C6       -0.01498   0.12402    0.98233   1.00
H2       0.20152    0.32102    1.02453   1.00
H2       -0.02601   0.13448    0.96703   1.00
C6       0.13661    0.28475    1.05109   1.00
C6       -0.05783   0.04518    0.98587   1.00
H2       0.15262    0.23272    1.02584   1.00
H2       -0.03417   0.14870    0.99251   1.00
C6       0.14336    0.35472    1.05623   1.00
C6       -0.04137   0.00534    0.96984   1.00
C6       0.06517    0.22695    1.05765   1.00
C6       -0.04620   0.02533    1.00738   1.00
C6       0.19071    0.27806    1.06380   1.00
C6       -0.13461   0.02242    0.98381   1.00
H2       0.19289    0.39667    1.05148   1.00
H2       -0.04801   0.01906    0.95447   1.00
H2       0.10402    0.36109    1.04876   1.00
H2       0.01088    0.01574    0.97125   1.00
H2       0.13840    0.35983    1.07251   1.00
H2       -0.07477   -0.04957   0.97157   1.00
H2       0.05801    0.22827    1.07399   1.00
H2       -0.07987   -0.02899   1.01021   1.00
H2       0.02501    0.23203    1.05017   1.00
H2       0.00608    0.03599    1.00917   1.00
H2       0.05855    0.17713    1.05382   1.00
H2       -0.05606   0.05376    1.01895   1.00
H2       0.24220    0.31823    1.05990   1.00
H2       -0.14575   0.03464    0.96878   1.00
H2       0.18351    0.28198    1.08002   1.00
H2       -0.16670   -0.03250   0.98603   1.00
H2       0.18759    0.22900    1.06114   1.00
H2       -0.14973   0.04780    0.99503   1.00
C4       0.17368    0.81257    0.96456   1.00
C4       0.14303    0.83875    0.95102   1.00
C3       0.24478    0.83519    0.96417   1.00
C3       0.18220    0.89427    0.93764   1.00
C3       0.13242    0.76171    0.97912   1.00
C3       0.07050    0.80896    0.95066   1.00
C2       0.23629    0.76210    0.99259   1.00
C2       0.08092    0.88957    0.92292   1.00
C3       0.27530    0.81106    0.97781   1.00
C3       0.15221    0.91878    0.92394   1.00
C3       0.16555    0.73874    0.99281   1.00
C3       0.04194    0.83516    0.93640   1.00
H1       0.27695    0.86956    0.95384   1.00
H1       0.23404    0.91944    0.93749   1.00
C5       0.06010    0.73487    0.97968   1.00
C5       0.02856    0.75482    0.96436   1.00
H1       0.32689    0.82962    0.97680   1.00
H1       0.18327    0.95879    0.91463   1.00
H1       0.13800    0.70297    1.00347   1.00
H1       -0.00944   0.81500    0.93559   1.00
C6       0.01819    0.68654    0.99652   1.00
C6       -0.04829   0.71897    0.96234   1.00
H2       0.04497    0.70564    1.01087   1.00
H2       -0.06190   0.70921    0.94635   1.00
H2       -0.02854   0.68773    0.99925   1.00
H2       -0.07246   0.66754    0.96846   1.00
C6       -0.00011   0.61101    0.99254   1.00
C6       -0.08050   0.75871    0.97262   1.00
H2       0.04489    0.61021    0.98691   1.00
H2       -0.05021   0.81287    0.96886   1.00
C6       -0.02983   0.55975    1.01069   1.00
C6       -0.15685   0.73480    0.96771   1.00
H2       -0.03684   0.59125    0.98009   1.00
H2       -0.07546   0.75601    0.98903   1.00
C6       0.02351    0.57812    1.02783   1.00
C6       -0.16667   0.74728    0.94514   1.00
C6       -0.09466   0.55665    1.01957   1.00
C6       -0.20417   0.65842    0.97282   1.00
C6       -0.04978   0.48745    1.00286   1.00
C6       -0.17943   0.77695    0.98085   1.00
H2       0.07037    0.58180    1.02198   1.00
H2       -0.13312   0.80058    0.94095   1.00
H2       0.03676    0.62666    1.03490   1.00
H2       -0.15570   0.71590    0.93505   1.00
H2       0.00396    0.53953    1.03975   1.00
H2       -0.21905   0.73488    0.94219   1.00
H2       -0.11772   0.51731    1.03123   1.00
H2       -0.25766   0.64349    0.97072   1.00
H2       -0.08257   0.60505    1.02656   1.00
H2       -0.19352   0.62613    0.96300   1.00
H2       -0.13252   0.54520    1.00773   1.00
H2       -0.19721   0.64797    0.98852   1.00
H2       -0.00554   0.48665    0.99660   1.00
H2       -0.14801   0.83138    0.97766   1.00
H2       -0.07044   0.44982    1.01505   1.00
H2       -0.23243   0.76238    0.97785   1.00
H2       -0.08842   0.47098    0.99098   1.00
H2       -0.17498   0.76919    0.99699   1.00
C4       0.17637    0.37086    0.46122   1.00
C4       0.14657    0.31712    0.44661   1.00
C3       0.23920    0.38932    0.47112   1.00
C3       0.18084    0.28298    0.43933   1.00
C3       0.14271    0.40804    0.46632   1.00
C3       0.08004    0.29613    0.43880   1.00
C2       0.23836    0.48171    0.49001   1.00
C2       0.08501    0.20620    0.41783   1.00
C3       0.26952    0.44325    0.48501   1.00
C3       0.15098    0.22898    0.42546   1.00
C3       0.17548    0.46285    0.48045   1.00
C3       0.05128    0.24067    0.42478   1.00
H1       0.26495    0.36384    0.46877   1.00
H1       0.22905    0.29651    0.44369   1.00
C5       0.07794    0.38996    0.45749   1.00
C5       0.04419    0.33047    0.44492   1.00
H1       0.31502    0.45419    0.49157   1.00
H1       0.17825    0.20628    0.42087   1.00
H1       0.15336    0.49078    0.48436   1.00
H1       0.00390    0.22397    0.41899   1.00
C6       0.04646    0.43422    0.46136   1.00
C6       -0.02890   0.30309    0.43822   1.00
H2       0.08584    0.48764    0.46003   1.00
H2       -0.05669   0.24780    0.43986   1.00
H2       0.01162    0.42946    0.44930   1.00
H2       -0.05649   0.31794    0.44860   1.00
C6       0.00821    0.41906    0.48219   1.00
C6       -0.03512   0.32544    0.41619   1.00
H2       0.03917    0.41393    0.49402   1.00
H2       0.00021    0.31986    0.40615   1.00
C6       -0.01308   0.47122    0.48985   1.00
C6       -0.10724   0.28837    0.40601   1.00
H2       -0.03766   0.36893    0.48111   1.00
H2       -0.01716   0.38008    0.41652   1.00
C6       0.04997    0.54140    0.49492   1.00
C6       -0.13196   0.21200    0.40197   1.00
C6       -0.05811   0.48130    0.47412   1.00
C6       -0.16095   0.29424    0.41907   1.00
C6       -0.05524   0.44299    0.50963   1.00
C6       -0.10253   0.32265    0.38521   1.00
H2       0.08341    0.53589    0.50575   1.00
H2       -0.09460   0.20607    0.39305   1.00
H2       0.07977    0.56616    0.48141   1.00
H2       -0.14044   0.18379    0.41606   1.00
H2       0.03467    0.57585    0.50156   1.00
H2       -0.18000   0.18778    0.39362   1.00
H2       -0.07667   0.51390    0.48018   1.00
H2       -0.20979   0.27253    0.41118   1.00
H2       -0.02936   0.50545    0.46038   1.00
H2       -0.16968   0.26686    0.43335   1.00
H2       -0.10215   0.43246    0.46996   1.00
H2       -0.14411   0.34748    0.42249   1.00
H2       -0.02544   0.43560    0.52135   1.00
H2       -0.06570   0.31928    0.37530   1.00
H2       -0.07094   0.47794    0.51566   1.00
H2       -0.15168   0.29818    0.37743   1.00
H2       -0.10126   0.39403    0.50694   1.00
H2       -0.08661   0.37647    0.38709   1.00
C4       0.63839    0.81314    0.46438   1.00
C4       0.69338    0.84146    0.45016   1.00
C3       0.63961    0.77818    0.48220   1.00
C3       0.75622    0.84311    0.45381   1.00
C3       0.57948    0.81946    0.46086   1.00
C3       0.68621    0.86951    0.43151   1.00
C2       0.52868    0.75878    0.49364   1.00
C2       0.80339    0.89567    0.42099   1.00
C3       0.58665    0.75208    0.49646   1.00
C3       0.80948    0.86905    0.43966   1.00
C3       0.52681    0.79250    0.47581   1.00
C3       0.74152    0.89508    0.41745   1.00
H1       0.67872    0.76976    0.48539   1.00
H1       0.76590    0.82615    0.46698   1.00
C5       0.57406    0.85160    0.44277   1.00
C5       0.62526    0.87188    0.42735   1.00
H1       0.59073    0.72763    0.50905   1.00
H1       0.85340    0.86853    0.44317   1.00
H1       0.48434    0.79642    0.47392   1.00
H1       0.73815    0.91501    0.40397   1.00
C6       0.51491    0.86439    0.44029   1.00
C6       0.61543    0.89496    0.40670   1.00
H2       0.50690    0.88387    0.45452   1.00
H2       0.63109    0.87151    0.39503   1.00
H2       0.52740    0.90664    0.43004   1.00
H2       0.56176    0.87413    0.40314   1.00
C6       0.44795    0.80012    0.43275   1.00
C6       0.65305    0.97449    0.40440   1.00
H2       0.44030    0.75512    0.44109   1.00
H2       0.70444    0.99675    0.41072   1.00
C6       0.38013    0.80251    0.43394   1.00
C6       0.65927    1.00414    0.38255   1.00
H2       0.45592    0.79082    0.41699   1.00
H2       0.62668    0.99337    0.41398   1.00
C6       0.35915    0.80466    0.45621   1.00
C6       0.70553    0.98884    0.36876   1.00
C6       0.38573    0.86447    0.42225   1.00
C6       0.58853    0.97605    0.37239   1.00
C6       0.32221    0.73667    0.42406   1.00
C6       0.69248    1.08282    0.38414   1.00
H2       0.35584    0.76215    0.46496   1.00
H2       0.75554    1.00707    0.37567   1.00
H2       0.39566    0.85179    0.46372   1.00
H2       0.68308    0.93440    0.36596   1.00
H2       0.30952    0.80153    0.45692   1.00
H2       0.71337    1.01370    0.35404   1.00
H2       0.33680    0.86298    0.42195   1.00
H2       0.59300    1.00067    0.35779   1.00
H2       0.42258    0.91225    0.42943   1.00
H2       0.56488    0.92141    0.36964   1.00
H2       0.40183    0.86496    0.40663   1.00
H2       0.55448    0.98489    0.38200   1.00
H2       0.31563    0.69129    0.43190   1.00
H2       0.74301    1.10535    0.39104   1.00
H2       0.27357    0.73575    0.42464   1.00
H2       0.69834    1.10599    0.36922   1.00
H2       0.33341    0.73292    0.40817   1.00
H2       0.66143    1.09691    0.39338   1.00
C4       0.18809    -0.17943   0.46231   1.00
C4       0.16225    -0.15179   0.44760   1.00
C3       0.15957    -0.19885   0.48211   1.00
C3       0.10186    -0.14832   0.45087   1.00
C3       0.24465    -0.18825   0.45732   1.00
C3       0.19743    -0.12651   0.42878   1.00
C2       0.23814    -0.23843   0.49175   1.00
C2       0.11179    -0.09286   0.41826   1.00
C3       0.18352    -0.22777   0.49637   1.00
C3       0.07749    -0.11947   0.43672   1.00
C3       0.26727    -0.21824   0.47223   1.00
C3       0.17114    -0.09719   0.41482   1.00
H1       0.12076    -0.19208   0.48699   1.00
H1       0.07294    -0.16724   0.46358   1.00
C5       0.27732    -0.16700   0.43792   1.00
C5       0.25689    -0.13123   0.42426   1.00
H1       0.16058    -0.24095   0.51037   1.00
H1       0.03379    -0.11825   0.44003   1.00
H1       0.30704    -0.22576   0.46919   1.00
H1       0.19500    -0.07825   0.40134   1.00
C6       0.33228    -0.18326   0.43205   1.00
C6       0.29768    -0.09780   0.40528   1.00
H2       0.31610    -0.23559   0.43642   1.00
H2       0.30325    -0.04737   0.40367   1.00
H2       0.33667    -0.18542   0.41568   1.00
H2       0.35046    -0.08539   0.40681   1.00
C6       0.40403    -0.13173   0.44105   1.00
C6       0.26666    -0.14203   0.38571   1.00
H2       0.39854    -0.12161   0.45695   1.00
H2       0.21144    -0.16304   0.38557   1.00
C6       0.46094    -0.15162   0.43982   1.00
C6       0.29526    -0.10680   0.36474   1.00
H2       0.42241    -0.08299   0.43328   1.00
H2       0.27382    -0.18618   0.38684   1.00
C6       0.44367    -0.21458   0.45321   1.00
C6       0.27744    -0.05013   0.36047   1.00
C6       0.47309    -0.16616   0.41771   1.00
C6       0.37353    -0.07604   0.36338   1.00
C6       0.52860    -0.09098   0.44788   1.00
C6       0.26190    -0.16129   0.34778   1.00
H2       0.43370    -0.20636   0.46886   1.00
H2       0.22258    -0.06998   0.36164   1.00
H2       0.39882    -0.26023   0.44762   1.00
H2       0.30277    -0.00799   0.37112   1.00
H2       0.48569    -0.22515   0.45337   1.00
H2       0.29342    -0.02915   0.34525   1.00
H2       0.51608    -0.17518   0.41684   1.00
H2       0.39226    -0.05595   0.34823   1.00
H2       0.42846    -0.21135   0.41176   1.00
H2       0.39983    -0.03413   0.37409   1.00
H2       0.48395    -0.12315   0.40787   1.00
H2       0.38758    -0.11458   0.36675   1.00
H2       0.52299    -0.07904   0.46356   1.00
H2       0.20650    -0.18416   0.34793   1.00
H2       0.56991    -0.10262   0.44746   1.00
H2       0.27997    -0.13899   0.33279   1.00
H2       0.54426    -0.04524   0.43878   1.00
H2       0.27380    -0.20208   0.34973   1.00
C4       0.36031    0.17079    0.03513   1.00
C4       0.30441    0.14350    0.04903   1.00
C3       0.37725    0.12851    0.02339   1.00
C3       0.25734    0.07224    0.05060   1.00
C3       0.40146    0.24302    0.03271   1.00
C3       0.29435    0.18843    0.06196   1.00
C2       0.47128    0.22581    0.00629   1.00
C2       0.19331    0.08796    0.07783   1.00
C3       0.43079    0.15504    0.00933   1.00
C3       0.20366    0.04517    0.06462   1.00
C3       0.45529    0.26797    0.01814   1.00
C3       0.23927    0.15878    0.07610   1.00
H1       0.35174    0.07687    0.02476   1.00
H1       0.25990    0.03739    0.04148   1.00
C5       0.38868    0.28826    0.04472   1.00
C5       0.33835    0.26084    0.06048   1.00
H1       0.44023    0.12181    0.00127   1.00
H1       0.17164    -0.00670   0.06505   1.00
H1       0.48537    0.31899    0.01589   1.00
H1       0.23076    0.18903    0.08564   1.00
C6       0.42786    0.36412    0.04048   1.00
C6       0.33162    0.30726    0.07568   1.00
H2       0.43036    0.37228    0.02414   1.00
H2       0.32552    0.28554    0.09081   1.00
H2       0.39985    0.38897    0.04540   1.00
H2       0.37900    0.35540    0.07730   1.00
C6       0.50052    0.40127    0.05039   1.00
C6       0.27276    0.32211    0.07043   1.00
H2       0.52541    0.37110    0.04798   1.00
H2       0.22730    0.27476    0.06590   1.00
C6       0.55112    0.47605    0.04341   1.00
C6       0.25114    0.35655    0.08720   1.00
H2       0.49382    0.40152    0.06679   1.00
H2       0.28811    0.35449    0.05695   1.00
C6       0.57205    0.47889    0.02087   1.00
C6       0.21832    0.30889    0.10572   1.00
C6       0.52053    0.52318    0.04650   1.00
C6       0.31237    0.42488    0.09445   1.00
C6       0.61693    0.50450    0.05642   1.00
C6       0.19695    0.37189    0.07811   1.00
H2       0.59283    0.44525    0.01812   1.00
H2       0.17557    0.25974    0.10106   1.00
H2       0.52879    0.46351    0.01074   1.00
H2       0.25496    0.29934    0.11362   1.00
H2       0.61086    0.53045    0.01655   1.00
H2       0.19916    0.33139    0.11668   1.00
H2       0.55793    0.57607    0.04297   1.00
H2       0.29589    0.45081    0.10505   1.00
H2       0.47668    0.50819    0.03662   1.00
H2       0.35001    0.41646    0.10223   1.00
H2       0.50405    0.52102    0.06217   1.00
H2       0.33729    0.45885    0.08164   1.00
H2       0.64101    0.47338    0.05462   1.00
H2       0.15220    0.32510    0.07293   1.00
H2       0.65413    0.55659    0.05201   1.00
H2       0.17987    0.39563    0.08931   1.00
H2       0.60567    0.50510    0.07249   1.00
H2       0.21755    0.40649    0.06519   1.00
C4       0.81256    0.63889    0.03544   1.00
C4       0.84102    0.69415    0.04956   1.00
C3       0.76978    0.63558    0.01911   1.00
C3       0.83465    0.75324    0.04713   1.00
C3       0.82678    0.58436    0.03751   1.00
C3       0.87751    0.69111    0.06686   1.00
C2       0.75768    0.52886    0.00628   1.00
C2       0.89568    0.80443    0.07864   1.00
C3       0.74340    0.58248    0.00490   1.00
C3       0.86080    0.80661    0.06125   1.00
C3       0.79923    0.53143    0.02265   1.00
C3       0.90303    0.74636    0.08095   1.00
H1       0.75563    0.67128    0.01705   1.00
H1       0.81136    0.76004    0.03489   1.00
C5       0.86716    0.58342    0.05413   1.00
C5       0.88805    0.63425    0.06969   1.00
H1       0.71309    0.58320    -0.00658   1.00
H1       0.85427    0.84770    0.05866   1.00
H1       0.80860    0.49202    0.02353   1.00
H1       0.92883    0.74583    0.09350   1.00
C6       0.88782    0.52936    0.05492   1.00
C6       0.92033    0.62823    0.08912   1.00
H2       0.90416    0.52359    0.03987   1.00
H2       0.89812    0.64067    0.10193   1.00
H2       0.93411    0.54614    0.06372   1.00
H2       0.90563    0.57559    0.09239   1.00
C6       0.83056    0.45951    0.06357   1.00
C6       1.00010    0.67253    0.08906   1.00
H2       0.78151    0.44704    0.05687   1.00
H2       1.01559    0.72310    0.08295   1.00
C6       0.84004    0.39603    0.06094   1.00
C6       1.03789    0.68235    0.10975   1.00
H2       0.82537    0.46643    0.07974   1.00
H2       1.01941    0.64958    0.07829   1.00
C6       0.83693    0.37589    0.03831   1.00
C6       1.02160    0.72452    0.12497   1.00
C6       0.90817    0.40858    0.07026   1.00
C6       1.01975    0.61308    0.11952   1.00
C6       0.78095    0.33457    0.07215   1.00
C6       1.11594    0.72230    0.10578   1.00
H2       0.78987    0.36776    0.03120   1.00
H2       1.03282    0.77332    0.11840   1.00
H2       0.87961    0.41523    0.02975   1.00
H2       0.96813    0.69742    0.12941   1.00
H2       0.83883    0.32890    0.03673   1.00
H2       1.05177    0.73511    0.13879   1.00
H2       0.91205    0.36246    0.06964   1.00
H2       1.04999    0.62047    0.13316   1.00
H2       0.95161    0.44832    0.06201   1.00
H2       0.96618    0.58483    0.12390   1.00
H2       0.91229    0.42424    0.08608   1.00
H2       1.02940    0.58179    0.10895   1.00
H2       0.73156    0.32307    0.06599   1.00
H2       1.13161    0.77207    0.09906   1.00
H2       0.78509    0.28875    0.07063   1.00
H2       1.14463    0.73085    0.11983   1.00
H2       0.78126    0.34515    0.08831   1.00
H2       1.13087    0.69443    0.09544   1.00
C4       -0.17943   0.18810    0.03769   1.00
C4       -0.15179   0.16226    0.05241   1.00
C3       -0.19894   0.15951    0.01790   1.00
C3       -0.14840   0.10182    0.04914   1.00
C3       -0.18815   0.24472    0.04268   1.00
C3       -0.12642   0.19750    0.07121   1.00
C2       -0.23844   0.23815    0.00825   1.00
C2       -0.09285   0.11181    0.08174   1.00
C3       -0.22787   0.18346    0.00364   1.00
C3       -0.11955   0.07745    0.06329   1.00
C3       -0.21815   0.26733    0.02776   1.00
C3       -0.09709   0.17121    0.08517   1.00
H1       -0.19224   0.12065    0.01303   1.00
H1       -0.16739   0.07286    0.03645   1.00
C5       -0.16682   0.27745    0.06206   1.00
C5       -0.13104   0.25702    0.07572   1.00
H1       -0.24111   0.16047    -0.01034   1.00
H1       -0.11839   0.03371    0.06000   1.00
H1       -0.22560   0.30715    0.03079   1.00
H1       -0.07809   0.19511    0.09864   1.00
C6       -0.18297   0.33249    0.06792   1.00
C6       -0.09752   0.29787    0.09468   1.00
H2       -0.23531   0.31635    0.06357   1.00
H2       -0.04710   0.30338    0.09628   1.00
H2       -0.18507   0.33694    0.08429   1.00
H2       -0.08505   0.35065    0.09314   1.00
C6       -0.13141   0.40419    0.05890   1.00
C6       -0.14168   0.26695    0.11426   1.00
H2       -0.12137   0.39862    0.04300   1.00
H2       -0.16275   0.21172    0.11442   1.00
C6       -0.15122   0.46117    0.06011   1.00
C6       -0.10636   0.29561    0.13522   1.00
H2       -0.08266   0.42255    0.06665   1.00
H2       -0.18580   0.27417    0.11314   1.00
C6       -0.21421   0.44391    0.04675   1.00
C6       -0.04974   0.27772    0.13949   1.00
C6       -0.16566   0.47342    0.08223   1.00
C6       -0.07552   0.37389    0.13656   1.00
C6       -0.09056   0.52876    0.05203   1.00
C6       -0.16080   0.26235    0.15220   1.00
H2       -0.20606   0.43387    0.03109   1.00
H2       -0.06965   0.22284    0.13834   1.00
H2       -0.25986   0.39912    0.05235   1.00
H2       -0.00763   0.30297    0.12882   1.00
H2       -0.22473   0.48597    0.04658   1.00
H2       -0.02870   0.29374    0.15470   1.00
H2       -0.17461   0.51645    0.08309   1.00
H2       -0.05537   0.39266    0.15170   1.00
H2       -0.21086   0.42884    0.08819   1.00
H2       -0.03365   0.40011    0.12584   1.00
H2       -0.12263   0.48427    0.09205   1.00
H2       -0.11403   0.38799    0.13319   1.00
H2       -0.07870   0.52308    0.03634   1.00
H2       -0.18373   0.20695    0.15207   1.00
H2       -0.10214   0.57011    0.05245   1.00
H2       -0.13845   0.28046    0.16718   1.00
H2       -0.04480   0.54441    0.06112   1.00
H2       -0.20156   0.27431    0.15026   1.00
C4       0.49296    0.96223    0.87216   1.00
C4       0.51975    1.01624    0.88671   1.00
C3       0.53232    0.93447    0.86413   1.00
C3       0.58507    1.04132    0.89581   1.00
C3       0.42432    0.93436    0.86519   1.00
C3       0.48037    1.04687    0.89258   1.00
C2       0.43781    0.85075    0.84349   1.00
C2       0.57538    1.12770    0.91538   1.00
C3       0.50560    0.88021    0.85031   1.00
C3       0.61229    1.09556    0.90964   1.00
C3       0.39892    0.87887    0.85119   1.00
C3       0.51010    1.10224    0.90662   1.00
H1       0.58210    0.95308    0.86786   1.00
H1       0.61504    1.02067    0.89289   1.00
C5       0.38312    0.96209    0.87208   1.00
C5       0.41310    1.02192    0.88458   1.00
H1       0.53654    0.86232    0.84515   1.00
H1       0.65981    1.11145    0.91560   1.00
H1       0.35023    0.85740    0.84598   1.00
H1       0.48387    1.12564    0.91106   1.00
C6       0.30849    0.92748    0.86627   1.00
C6       0.37499    1.05941    0.88924   1.00
H2       0.28616    0.87250    0.86791   1.00
H2       0.40982    1.11406    0.88773   1.00
H2       0.27894    0.93810    0.87715   1.00
H2       0.33724    1.05051    0.87767   1.00
C6       0.29629    0.94723    0.84451   1.00
C6       0.33925    1.04089    0.91051   1.00
H2       0.33291    0.94621    0.83392   1.00
H2       0.37410    1.04007    0.92183   1.00
C6       0.22341    0.90364    0.83513   1.00
C6       0.31143    1.08705    0.91886   1.00
H2       0.30859    1.00041    0.84498   1.00
H2       0.29686    0.98847    0.90973   1.00
C6       0.20615    0.82930    0.83089   1.00
C6       0.37002    1.16034    0.92352   1.00
C6       0.16777    0.90272    0.84902   1.00
C6       0.26062    1.09069    0.90389   1.00
C6       0.22143    0.93589    0.81454   1.00
C6       0.27303    1.05583    0.93904   1.00
H2       0.24510    0.82821    0.82139   1.00
H2       0.40739    1.15947    0.93380   1.00
H2       0.20252    0.80215    0.84489   1.00
H2       0.39663    1.18689    0.90976   1.00
H2       0.15733    0.80068    0.82308   1.00
H2       0.35054    1.19070    0.93064   1.00
H2       0.11786    0.87635    0.84170   1.00
H2       0.23786    1.11892    0.91046   1.00
H2       0.16379    0.87632    0.86321   1.00
H2       0.28618    1.11654    0.88991   1.00
H2       0.17946    0.95451    0.85258   1.00
H2       0.21959    1.03965    0.90002   1.00
H2       0.25938    0.93711    0.80406   1.00
H2       0.30691    1.05277    0.95025   1.00
H2       0.17156    0.90691    0.80731   1.00
H2       0.25299    1.08660    0.94555   1.00
H2       0.23189    0.98808    0.81658   1.00
H2       0.23013    1.00447    0.93667   1.00
C4       0.02827    0.52020    0.86895   1.00
C4       -0.02864   0.49366    0.88247   1.00
C3       0.08158    0.50450    0.87095   1.00
C3       -0.03989   0.44408    0.89757   1.00
C3       0.03293    0.56429    0.85274   1.00
C3       -0.07670   0.51693    0.88104   1.00
C2       0.14166    0.57115    0.84102   1.00
C2       -0.14184   0.44242    0.91048   1.00
C3       0.13641    0.52885    0.85737   1.00
C3       -0.09452   0.41942    0.91123   1.00
C3       0.08940    0.58770    0.83917   1.00
C3       -0.13144   0.49082    0.89531   1.00
H1       0.08292    0.47533    0.88246   1.00
H1       -0.00919   0.42352    0.89908   1.00
C5       -0.01769   0.58421    0.85046   1.00
C5       -0.06967   0.56465    0.86560   1.00
H1       0.17307    0.51545    0.85960   1.00
H1       -0.09965   0.38389    0.92182   1.00
H1       0.09424    0.61876    0.82738   1.00
H1       -0.16638   0.50649    0.89486   1.00
C6       -0.01608   0.62488    0.83202   1.00
C6       -0.11659   0.59430    0.86562   1.00
H2       -0.00588   0.60336    0.81859   1.00
H2       -0.12177   0.60801    0.88109   1.00
H2       -0.06623   0.61762    0.82859   1.00
H2       -0.09348   0.64353    0.85806   1.00
C6       0.03582    0.70313    0.83409   1.00
C6       -0.18775   0.54594    0.85572   1.00
H2       0.08378    0.71070    0.84039   1.00
H2       -0.20698   0.49380    0.86109   1.00
C6       0.05300    0.74780    0.81449   1.00
C6       -0.24539   0.56407    0.85887   1.00
H2       0.01580    0.72364    0.84546   1.00
H2       -0.17982   0.54420    0.83943   1.00
C6       0.09179    0.72911    0.79869   1.00
C6       -0.26758   0.55699    0.88142   1.00
C6       -0.01207   0.74110    0.80455   1.00
C6       -0.22310   0.63716    0.85142   1.00
C6       0.10010    0.82369    0.82043   1.00
C6       -0.30872   0.51336    0.84633   1.00
H2       0.13746    0.73226    0.80534   1.00
H2       -0.28258   0.50624    0.88724   1.00
H2       0.06002    0.67757    0.79290   1.00
H2       -0.22657   0.59419    0.89096   1.00
H2       0.10767    0.76359    0.78571   1.00
H2       -0.31090   0.56510    0.88324   1.00
H2       0.00084    0.77606    0.79176   1.00
H2       -0.26521   0.64752    0.85234   1.00
H2       -0.04493   0.68961    0.79883   1.00
H2       -0.18157   0.67519    0.86067   1.00
H2       -0.04109   0.75260    0.81548   1.00
H2       -0.20587   0.64394    0.83570   1.00
H2       0.14726    0.83138    0.82734   1.00
H2       -0.32701   0.46088    0.85115   1.00
H2       0.11392    0.85697    0.80719   1.00
H2       -0.35063   0.52368    0.84816   1.00
H2       0.07499    0.84037    0.83127   1.00
H2       -0.29665   0.51691    0.83020   1.00
C4       0.47893    0.50652    0.86870   1.00
C4       0.50495    0.47574    0.88226   1.00
C3       0.50452    0.57819    0.86828   1.00
C3       0.56294    0.51492    0.89480   1.00
C3       0.42521    0.46479    0.85495   1.00
C3       0.47243    0.40307    0.88349   1.00
C2       0.42867    0.56917    0.84061   1.00
C2       0.55559    0.41359    0.91040   1.00
C3       0.48048    0.60872    0.85462   1.00
C3       0.58738    0.48492    0.90852   1.00
C3       0.40242    0.49792    0.84120   1.00
C3       0.49868    0.37453    0.89775   1.00
H1       0.54111    0.61084    0.87803   1.00
H1       0.59001    0.56671    0.89429   1.00
C5       0.39544    0.39206    0.85524   1.00
C5       0.41560    0.36094    0.87063   1.00
H1       0.50124    0.66072    0.85503   1.00
H1       0.62926    0.51600    0.91720   1.00
H1       0.36463    0.47003    0.83110   1.00
H1       0.47664    0.32308    0.89916   1.00
C6       0.34379    0.34923    0.83920   1.00
C6       0.37723    0.28438    0.87362   1.00
H2       0.36154    0.37364    0.82448   1.00
H2       0.36946    0.27321    0.88979   1.00
H2       0.34224    0.30096    0.83686   1.00
H2       0.32505    0.26138    0.86816   1.00
C6       0.26996    0.33487    0.84399   1.00
C6       0.41278    0.24797    0.86327   1.00
H2       0.27224    0.38177    0.84924   1.00
H2       0.46757    0.27677    0.86630   1.00
C6       0.21586    0.30448    0.82657   1.00
C6       0.38648    0.17173    0.86903   1.00
H2       0.25079    0.30004    0.85691   1.00
H2       0.40793    0.25094    0.84687   1.00
C6       0.23380    0.35572    0.80884   1.00
C6       0.40154    0.16424    0.89155   1.00
C6       0.20832    0.23704    0.81827   1.00
C6       0.30903    0.12644    0.86500   1.00
C6       0.14568    0.28882    0.83519   1.00
C6       0.42443    0.14463    0.85573   1.00
H2       0.24057    0.40431    0.81425   1.00
H2       0.45571    0.19648    0.89498   1.00
H2       0.28064    0.36583    0.80124   1.00
H2       0.37305    0.17848    0.90181   1.00
H2       0.19348    0.33597    0.79743   1.00
H2       0.38734    0.11167    0.89505   1.00
H2       0.16714    0.21378    0.80717   1.00
H2       0.29219    0.07274    0.86768   1.00
H2       0.25499    0.24597    0.81077   1.00
H2       0.27960    0.14035    0.87500   1.00
H2       0.19709    0.20054    0.83052   1.00
H2       0.29684    0.13187    0.84935   1.00
H2       0.14802    0.33502    0.84107   1.00
H2       0.47944    0.17449    0.85817   1.00
H2       0.10620    0.26785    0.82352   1.00
H2       0.40809    0.09156    0.85930   1.00
H2       0.12953    0.25179    0.84752   1.00
H2       0.41467    0.14730    0.83964   1.00
C4       0.29571    0.15738    0.29452   1.00
C4       0.35020    0.18399    0.28013   1.00
C3       0.25505    0.18816    0.29807   1.00
C3       0.36324    0.23875    0.26681   1.00
C3       0.28064    0.09779    0.30595   1.00
C3       0.39378    0.15530    0.27879   1.00
C2       0.18336    0.10169    0.32289   1.00
C2       0.46243    0.24007    0.25172   1.00
C3       0.20035    0.16108    0.31173   1.00
C3       0.41780    0.26624    0.25310   1.00
C3       0.22427    0.07161    0.31964   1.00
C3       0.44901    0.18503    0.26470   1.00
H1       0.26408    0.23181    0.29100   1.00
H1       0.33316    0.26027    0.26643   1.00
C5       0.32158    0.06620    0.30366   1.00
C5       0.38147    0.09825    0.29121   1.00
H1       0.17283    0.18553    0.31354   1.00
H1       0.42462    0.30591    0.24396   1.00
H1       0.21168    0.02907    0.32794   1.00
H1       0.48138    0.16634    0.26340   1.00
C6       0.30067    -0.00081   0.31422   1.00
C6       0.43214    0.07313    0.29118   1.00
H2       0.24586    -0.03432   0.31249   1.00
H2       0.48365    0.11686    0.29174   1.00
H2       0.32053    -0.02961   0.30648   1.00
H2       0.43005    0.04693    0.30521   1.00
C6       0.32282    0.00798    0.33705   1.00
C6       0.42265    0.02515    0.27282   1.00
H2       0.31185    0.04491    0.34427   1.00
H2       0.41475    0.04664    0.25893   1.00
C6       0.29125    -0.05756   0.35060   1.00
C6       0.48079    0.00841    0.26867   1.00
H2       0.37828    0.03137    0.33749   1.00
H2       0.37513    -0.02282   0.27519   1.00
C6       0.21335    -0.08802   0.35347   1.00
C6       0.54779    0.07264    0.26195   1.00
C6       0.30497    -0.11288   0.34169   1.00
C6       0.49517    -0.02327   0.28753   1.00
C6       0.32481    -0.03786   0.37191   1.00
C6       0.45789    -0.04429   0.25114   1.00
H2       0.20187    -0.04987   0.35944   1.00
H2       0.53912    0.09686    0.24886   1.00
H2       0.18599    -0.10686   0.33920   1.00
H2       0.56909    0.11026    0.27407   1.00
H2       0.19267    -0.13079   0.36405   1.00
H2       0.58649    0.05960    0.25775   1.00
H2       0.28707    -0.15631   0.35196   1.00
H2       0.53225    -0.03923   0.28405   1.00
H2       0.27853    -0.13195   0.32729   1.00
H2       0.51592    0.01344    0.29992   1.00
H2       0.35939    -0.09233   0.33912   1.00
H2       0.44850    -0.06779   0.29283   1.00
H2       0.31600    0.00066    0.37899   1.00
H2       0.44774    -0.02411   0.23735   1.00
H2       0.30405    -0.08198   0.38200   1.00
H2       0.49710    -0.05730   0.24758   1.00
H2       0.37980    -0.01726   0.37095   1.00
H2       0.41147    -0.09141   0.25513   1.00
C4       0.86740    0.70325    0.29496   1.00
C4       0.84164    0.64979    0.28023   1.00
C3       0.91259    0.70816    0.31075   1.00
C3       0.86475    0.60180    0.27898   1.00
C3       0.84767    0.75413    0.29410   1.00
C3       0.79088    0.64335    0.26609   1.00
C2       0.92217    0.81321    0.32414   1.00
C2       0.78717    0.53963    0.25112   1.00
C3       0.93948    0.76159    0.32485   1.00
C3       0.83819    0.54816    0.26494   1.00
C3       0.87649    0.80791    0.30868   1.00
C3       0.76488    0.58779    0.25211   1.00
H1       0.92714    0.67273    0.31273   1.00
H1       0.90224    0.60442    0.28808   1.00
C5       0.80009    0.75030    0.27907   1.00
C5       0.76768    0.69182    0.26606   1.00
H1       0.97204    0.76238    0.33583   1.00
H1       0.85682    0.51509    0.26486   1.00
H1       0.86406    0.84528    0.30848   1.00
H1       0.72842    0.58125    0.24191   1.00
C6       0.78531    0.80825    0.27698   1.00
C6       0.70888    0.68025    0.25249   1.00
H2       0.83310    0.85657    0.27787   1.00
H2       0.66926    0.62679    0.25333   1.00
H2       0.76795    0.81067    0.26180   1.00
H2       0.68234    0.70553    0.25832   1.00
C6       0.73188    0.80467    0.29278   1.00
C6       0.73104    0.70356    0.23003   1.00
H2       0.74349    0.79232    0.30775   1.00
H2       0.76606    0.68651    0.22499   1.00
C6       0.72389    0.86914    0.29508   1.00
C6       0.67332    0.68052    0.21375   1.00
H2       0.68226    0.76140    0.28871   1.00
H2       0.76102    0.75922    0.22992   1.00
C6       0.78917    0.93053    0.30398   1.00
C6       0.63500    0.60214    0.21058   1.00
C6       0.70641    0.89020    0.27458   1.00
C6       0.62133    0.70327    0.21946   1.00
C6       0.66447    0.85200    0.31004   1.00
C6       0.70638    0.71428    0.19318   1.00
H2       0.80352    0.91696    0.31832   1.00
H2       0.67046    0.58430    0.20685   1.00
H2       0.83217    0.94802    0.29362   1.00
H2       0.60700    0.57518    0.22413   1.00
H2       0.78146    0.97367    0.30684   1.00
H2       0.59814    0.58710    0.19824   1.00
H2       0.69616    0.93209    0.27660   1.00
H2       0.58416    0.69129    0.20735   1.00
H2       0.74863    0.90727    0.26391   1.00
H2       0.59319    0.67732    0.23313   1.00
H2       0.66143    0.84744    0.26777   1.00
H2       0.64717    0.75811    0.22219   1.00
H2       0.67461    0.83746    0.32487   1.00
H2       0.74312    0.69927    0.18833   1.00
H2       0.65718    0.89572    0.31225   1.00
H2       0.66806    0.69934    0.18125   1.00
H2       0.61657    0.80985    0.30439   1.00
H2       0.73311    0.76979    0.19432   1.00
C4       0.83625    0.13281    0.29489   1.00
C4       0.80865    0.15871    0.28018   1.00
C3       0.79524    0.08509    0.31009   1.00
C3       0.73728    0.13343    0.27828   1.00
C3       0.90750    0.15502    0.29465   1.00
C3       0.85338    0.21185    0.26670   1.00
C2       0.89138    0.07787    0.32404   1.00
C2       0.75301    0.21332    0.25109   1.00
C3       0.82177    0.05812    0.32417   1.00
C3       0.71021    0.16004    0.26427   1.00
C3       0.93244    0.12603    0.30918   1.00
C3       0.82379    0.23781    0.25272   1.00
H1       0.74467    0.06863    0.31162   1.00
H1       0.70223    0.09426    0.28688   1.00
C5       0.95186    0.20512    0.28026   1.00
C5       0.92547    0.23739    0.26731   1.00
H1       0.78945    0.02367    0.33469   1.00
H1       0.65829    0.13977    0.26371   1.00
H1       0.98270    0.14019    0.30940   1.00
H1       0.85397    0.27591    0.24298   1.00
C6       1.02561    0.22271    0.27877   1.00
C6       0.97276    0.29844    0.25448   1.00
H2       1.02797    0.17584    0.27933   1.00
H2       0.95698    0.33659    0.25551   1.00
H2       1.04679    0.24231    0.26385   1.00
H2       1.02384    0.32578    0.26085   1.00
C6       1.07247    0.27510    0.29526   1.00
C6       0.97738    0.27949    0.23190   1.00
H2       1.04682    0.26099    0.30998   1.00
H2       0.92629    0.24375    0.22626   1.00
C6       1.14572    0.28550    0.29810   1.00
C6       1.01224    0.33932    0.21627   1.00
H2       1.07740    0.32442    0.29159   1.00
H2       1.00475    0.25116    0.23175   1.00
C6       1.14337    0.22037    0.30651   1.00
C6       0.97023    0.37563    0.21311   1.00
C6       1.18661    0.30659    0.27800   1.00
C6       1.08565    0.39248    0.22285   1.00
C6       1.18471    0.34355    0.31375   1.00
C6       1.01660    0.30944    0.19549   1.00
H2       1.11388    0.20350    0.32055   1.00
H2       0.91777    0.33926    0.20877   1.00
H2       1.12029    0.17850    0.29569   1.00
H2       0.96863    0.40147    0.22685   1.00
H2       1.19454    0.22957    0.30976   1.00
H2       0.99238    0.41406    0.20118   1.00
H2       1.23909    0.31844    0.28044   1.00
H2       1.11119    0.43132    0.21117   1.00
H2       1.16389    0.26554    0.26688   1.00
H2       1.08520    0.41847    0.23671   1.00
H2       1.18783    0.35153    0.27153   1.00
H2       1.11593    0.36800    0.22559   1.00
H2       1.15829    0.33087    0.32833   1.00
H2       0.96591    0.27201    0.19003   1.00
H2       1.23615    0.35244    0.31636   1.00
H2       1.04023    0.34931    0.18400   1.00
H2       1.18928    0.39135    0.30848   1.00
H2       1.04688    0.28427    0.19663   1.00
C4       0.83360    0.69384    0.79818   1.00
C4       0.80514    0.63720    0.78454   1.00
C3       0.80155    0.73302    0.80224   1.00
C3       0.73936    0.61140    0.77569   1.00
C3       0.89656    0.71281    0.80825   1.00
C3       0.84315    0.60442    0.77942   1.00
C2       0.88939    0.80630    0.82651   1.00
C2       0.74891    0.52480    0.75619   1.00
C3       0.82830    0.78734    0.81604   1.00
C3       0.71214    0.55715    0.76187   1.00
C3       0.92191    0.76821    0.82227   1.00
C3       0.81375    0.54957    0.76519   1.00
H1       0.75790    0.72400    0.79518   1.00
H1       0.70848    0.63061    0.77911   1.00
C5       0.93266    0.67710    0.80413   1.00
C5       0.90843    0.62627    0.78849   1.00
H1       0.80259    0.81340    0.81837   1.00
H1       0.66452    0.54111    0.75596   1.00
H1       0.96627    0.78291    0.82983   1.00
H1       0.83942    0.52529    0.76106   1.00
C6       0.99529    0.69293    0.81646   1.00
C6       0.95117    0.59603    0.78132   1.00
H2       0.98528    0.69730    0.83240   1.00
H2       0.94950    0.59326    0.76481   1.00
H2       1.00420    0.65002    0.81679   1.00
H2       1.00517    0.63033    0.78406   1.00
C6       1.06156    0.75777    0.80883   1.00
C6       0.92972    0.52505    0.79114   1.00
H2       1.05032    0.79851    0.80563   1.00
H2       0.87415    0.49345    0.79107   1.00
C6       1.12575    0.78777    0.82293   1.00
C6       0.95964    0.48218    0.78164   1.00
H2       1.07530    0.74534    0.79421   1.00
H2       0.94410    0.53364    0.80714   1.00
C6       1.11411    0.81690    0.84288   1.00
C6       0.93265    0.45834    0.75981   1.00
C6       1.14627    0.73373    0.82814   1.00
C6       1.03862    0.52262    0.78130   1.00
C6       1.18643    0.84738    0.81162   1.00
C6       0.93670    0.41742    0.79480   1.00
H2       1.09846    0.85444    0.83972   1.00
H2       0.87697    0.43056    0.75947   1.00
H2       1.07481    0.77687    0.85221   1.00
H2       0.95047    0.50130    0.74942   1.00
H2       1.16060    0.84188    0.85195   1.00
H2       0.95000    0.42463    0.75385   1.00
H2       1.19379    0.75636    0.83675   1.00
H2       1.05903    0.49070    0.77601   1.00
H2       1.10721    0.69281    0.83732   1.00
H2       1.05751    0.56630    0.77113   1.00
H2       1.15338    0.71137    0.81435   1.00
H2       1.05893    0.54123    0.79643   1.00
H2       1.17483    0.88739    0.80777   1.00
H2       0.88116    0.38658    0.79536   1.00
H2       1.23247    0.87035    0.82094   1.00
H2       0.95601    0.38550    0.78868   1.00
H2       1.19806    0.82974    0.79758   1.00
H2       0.95541    0.43091    0.81032   1.00
C4       0.29729    0.13213    0.79515   1.00
C4       0.35278    0.15607    0.78117   1.00
C3       0.23750    0.13591    0.79102   1.00
C3       0.34943    0.17879    0.76127   1.00
C3       0.30088    0.10323    0.81408   1.00
C3       0.41433    0.15763    0.78703   1.00
C2       0.18361    0.08067    0.82299   1.00
C2       0.46616    0.20765    0.75322   1.00
C3       0.18220    0.11070    0.80445   1.00
C3       0.40443    0.20413    0.74773   1.00
C3       0.24330    0.07779    0.82728   1.00
C3       0.46930    0.18416    0.77284   1.00
H1       0.23217    0.15775    0.77820   1.00
H1       0.30666    0.17714    0.75579   1.00
C5       0.36092    0.10064    0.81945   1.00
C5       0.41972    0.13276    0.80656   1.00
H1       0.14043    0.11471    0.80054   1.00
H1       0.39887    0.21998    0.73362   1.00
H1       0.24375    0.05646    0.84081   1.00
H1       0.51405    0.18652    0.77651   1.00
C6       0.36119    0.06344    0.83850   1.00
C6       0.48745    0.14142    0.81338   1.00
H2       0.31318    0.01538    0.83951   1.00
H2       0.52792    0.19264    0.80951   1.00
H2       0.39786    0.04591    0.83751   1.00
H2       0.49137    0.14191    0.82982   1.00
C6       0.37560    0.10721    0.85823   1.00
C6       0.50196    0.08551    0.80465   1.00
H2       0.34586    0.13316    0.85792   1.00
H2       0.48858    0.07765    0.78856   1.00
C6       0.36224    0.06957    0.87909   1.00
C6       0.57605    0.09766    0.80691   1.00
H2       0.42887    0.14790    0.85780   1.00
H2       0.46683    0.03720    0.81200   1.00
C6       0.28535    0.01814    0.88236   1.00
C6       0.62802    0.15955    0.79415   1.00
C6       0.40312    0.03176    0.88108   1.00
C6       0.59938    0.10852    0.82936   1.00
C6       0.38564    0.12340    0.89632   1.00
C6       0.57701    0.03360    0.79894   1.00
H2       0.25492    0.04305    0.88073   1.00
H2       0.61240    0.15396    0.77827   1.00
H2       0.26643    -0.02360   0.87149   1.00
H2       0.63308    0.20710    0.79975   1.00
H2       0.27600    -0.00432   0.89749   1.00
H2       0.67856    0.16472    0.79470   1.00
H2       0.39729    0.00982    0.89619   1.00
H2       0.64904    0.11206    0.83092   1.00
H2       0.38538    -0.00986   0.87017   1.00
H2       0.60410    0.15560    0.83531   1.00
H2       0.45730    0.06655    0.87842   1.00
H2       0.56289    0.06630    0.83875   1.00
H2       0.35774    0.15115    0.89574   1.00
H2       0.56158    0.02404    0.78304   1.00
H2       0.37690    0.09948    0.91124   1.00
H2       0.62792    0.03982    0.80008   1.00
H2       0.43994    0.16046    0.89509   1.00
H2       0.54227    -0.01167   0.80763   1.00
C4       0.86736    0.16407    0.79495   1.00
C4       0.84359    0.19553    0.78087   1.00
C3       0.85525    0.09647    0.79223   1.00
C3       0.81244    0.16448    0.76208   1.00
C3       0.90466    0.20082    0.81251   1.00
C3       0.85094    0.26057    0.78549   1.00
C2       0.91827    0.10161    0.82288   1.00
C2       0.79249    0.25754    0.75283   1.00
C3       0.88016    0.06621    0.80569   1.00
C3       0.78732    0.19427    0.74851   1.00
C3       0.92947    0.16830    0.82580   1.00
C3       0.82434    0.28900    0.77132   1.00
H1       0.82729    0.06644    0.78047   1.00
H1       0.80744    0.11937    0.75745   1.00
C5       0.91600    0.26796    0.81651   1.00
C5       0.88443    0.29563    0.80378   1.00
H1       0.86991    0.01739    0.80283   1.00
H1       0.76515    0.16915    0.73525   1.00
H1       0.95660    0.19296    0.83837   1.00
H1       0.82817    0.33494    0.77413   1.00
C6       0.96165    0.30898    0.83395   1.00
C6       0.88538    0.36085    0.80950   1.00
H2       1.00688    0.30365    0.83402   1.00
H2       0.83498    0.35440    0.80687   1.00
H2       0.98374    0.36347    0.83151   1.00
H2       0.89110    0.36978    0.82577   1.00
C6       0.92446    0.28971    0.85499   1.00
C6       0.94239    0.42531    0.79831   1.00
H2       0.89387    0.23424    0.85633   1.00
H2       0.94343    0.41342    0.78229   1.00
C6       0.96968    0.31741    0.87449   1.00
C6       0.93878    0.49248    0.79951   1.00
H2       0.88772    0.30760    0.85509   1.00
H2       0.99156    0.43576    0.80440   1.00
C6       1.01601    0.28563    0.87726   1.00
C6       0.87537    0.48532    0.78824   1.00
C6       1.01450    0.39615    0.87411   1.00
C6       0.93796    0.51406    0.82176   1.00
C6       0.92209    0.29740    0.89327   1.00
C6       1.00306    0.55054    0.78902   1.00
H2       0.98597    0.23000    0.87726   1.00
H2       0.87386    0.46904    0.77256   1.00
H2       1.05370    0.30113    0.86519   1.00
H2       0.82819    0.44817    0.79559   1.00
H2       1.04379    0.30158    0.89159   1.00
H2       0.87582    0.53373    0.78795   1.00
H2       1.04213    0.41530    0.88837   1.00
H2       0.94037    0.56339    0.82243   1.00
H2       1.05219    0.41276    0.86198   1.00
H2       0.89135    0.47712    0.82945   1.00
H2       0.98325    0.41977    0.87174   1.00
H2       0.98133    0.51808    0.83015   1.00
H2       0.88974    0.24211    0.89437   1.00
H2       1.00572    0.53815    0.77316   1.00
H2       0.95139    0.31528    0.90730   1.00
H2       1.00265    0.59855    0.78935   1.00
H2       0.88899    0.31951    0.89240   1.00
H2       1.04957    0.55901    0.79656   1.00
C4       0.02747    0.50616    0.36865   1.00
C4       -0.02798   0.47925    0.38271   1.00
C3       0.03452    0.46502    0.35357   1.00
C3       -0.08387   0.41129    0.38133   1.00
C3       0.07834    0.57676    0.36951   1.00
C3       -0.02846   0.52120    0.39885   1.00
C2       0.13776    0.56121    0.33958   1.00
C2       -0.13849   0.42369    0.41171   1.00
C3       0.08774    0.49166    0.33940   1.00
C3       -0.13732   0.38414    0.39542   1.00
C3       0.13152    0.60196    0.35473   1.00
C3       -0.08366   0.49149    0.41295   1.00
H1       0.00163    0.41403    0.35245   1.00
H1       -0.08819   0.37919    0.36991   1.00
C5       0.07555    0.62009    0.38489   1.00
C5       0.02493    0.59090    0.40053   1.00
H1       0.08981    0.45936    0.32885   1.00
H1       -0.17600   0.33467    0.39363   1.00
H1       0.16837    0.65197    0.35475   1.00
H1       -0.08556   0.51956    0.42470   1.00
C6       0.12546    0.69604    0.38429   1.00
C6       0.02762    0.63245    0.41886   1.00
H2       0.12991    0.71404    0.36873   1.00
H2       0.01734    0.60141    0.43245   1.00
H2       0.10540    0.72477    0.39196   1.00
H2       0.07908    0.67384    0.42178   1.00
C6       0.19683    0.71603    0.39354   1.00
C6       -0.02138   0.66242    0.41715   1.00
H2       0.21298    0.68070    0.38810   1.00
H2       -0.07088   0.62326    0.41134   1.00
C6       0.25675    0.79031    0.38972   1.00
C6       -0.03432   0.69307    0.43681   1.00
H2       0.19034    0.70772    0.40991   1.00
H2       -0.00086   0.70208    0.40551   1.00
C6       0.27669    0.80292    0.36697   1.00
C6       -0.07354   0.63740    0.45306   1.00
C6       0.23889    0.84434    0.39722   1.00
C6       0.03320    0.74997    0.44606   1.00
C6       0.32021    0.80047    0.40170   1.00
C6       -0.07894   0.72499    0.43117   1.00
H2       0.28853    0.76488    0.36112   1.00
H2       -0.12099   0.59589    0.44690   1.00
H2       0.23570    0.80072    0.35777   1.00
H2       -0.04327   0.61565    0.45864   1.00
H2       0.32147    0.85311    0.36465   1.00
H2       -0.08646   0.65837    0.46612   1.00
H2       0.28265    0.89574    0.39582   1.00
H2       0.02335    0.77431    0.45888   1.00
H2       0.19744    0.84251    0.38832   1.00
H2       0.06459    0.72931    0.45156   1.00
H2       0.22328    0.83574    0.41309   1.00
H2       0.06250    0.78914    0.43479   1.00
H2       0.33544    0.76392    0.39683   1.00
H2       -0.12768   0.68668    0.42475   1.00
H2       0.36367    0.85158    0.39940   1.00
H2       -0.08979   0.74674    0.44447   1.00
H2       0.30976    0.79358    0.41795   1.00
H2       -0.05336   0.76569    0.42003   1.00
C4       0.47916    0.97226    0.36875   1.00
C4       0.50764    1.02755    0.38287   1.00
C3       0.43569    0.96850    0.35257   1.00
C3       0.50054    1.08626    0.38056   1.00
C3       0.49410    0.91818    0.37068   1.00
C3       0.54489    1.02493    0.40003   1.00
C2       0.42424    0.86220    0.33960   1.00
C2       0.56233    1.13786    0.41194   1.00
C3       0.40928    0.91539    0.33837   1.00
C3       0.52671    1.13963    0.39468   1.00
C3       0.46650    0.86521    0.35583   1.00
C3       0.57041    1.08017    0.41412   1.00
H1       0.42103    1.00386    0.35062   1.00
H1       0.47667    1.09276    0.36842   1.00
C5       0.53522    0.91769    0.38715   1.00
C5       0.55618    0.96849    0.40272   1.00
H1       0.37845    0.91577    0.32700   1.00
H1       0.51963    1.18044    0.39218   1.00
H1       0.47636    0.82612    0.35660   1.00
H1       0.59675    1.07994    0.42658   1.00
C6       0.55658    0.86413    0.38777   1.00
C6       0.58929    0.96286    0.42202   1.00
H2       0.57259    0.85854    0.37265   1.00
H2       0.56724    0.97502    0.43493   1.00
H2       0.60321    0.88132    0.39643   1.00
H2       0.57518    0.91035    0.42525   1.00
C6       0.50003    0.79406    0.39651   1.00
C6       0.66901    1.00777    0.42175   1.00
H2       0.45064    0.78113    0.38996   1.00
H2       0.68386    1.05822    0.41567   1.00
C6       0.51014    0.73101    0.39373   1.00
C6       0.70755    1.01796    0.44231   1.00
H2       0.49525    0.80091    0.41271   1.00
H2       0.68833    0.98513    0.41086   1.00
C6       0.50651    0.71092    0.37108   1.00
C6       0.69121    1.05975    0.45767   1.00
C6       0.57879    0.74422    0.40282   1.00
C6       0.69034    0.94888    0.45203   1.00
C6       0.45175    0.66927    0.40505   1.00
C6       0.78545    1.05852    0.43813   1.00
H2       0.45908    0.70232    0.36412   1.00
H2       0.70177    1.10841    0.45114   1.00
H2       0.54874    0.75049    0.36243   1.00
H2       0.63789    1.03224    0.46226   1.00
H2       0.50887    0.66419    0.36941   1.00
H2       0.72186    1.07063    0.47140   1.00
H2       0.58315    0.69839    0.40211   1.00
H2       0.72109    0.95656    0.46558   1.00
H2       0.62177    0.78420    0.39448   1.00
H2       0.63693    0.92022    0.45656   1.00
H2       0.58326    0.75986    0.41866   1.00
H2       0.70004    0.91784    0.44137   1.00
H2       0.40203    0.65731    0.39905   1.00
H2       0.80047    1.10818    0.43144   1.00
H2       0.45634    0.62374    0.40344   1.00
H2       0.81464    1.06734    0.45209   1.00
H2       0.45245    0.67981    0.42123   1.00
H2       0.80043    1.03093    0.42769   1.00
C4       0.49313    0.52085    0.36875   1.00
C4       0.51994    0.49237    0.38287   1.00
C3       0.53290    0.56448    0.35261   1.00
C3       0.58583    0.49963    0.38058   1.00
C3       0.42405    0.50575    0.37064   1.00
C3       0.48000    0.45495    0.39999   1.00
C2       0.43800    0.57578    0.33960   1.00
C2       0.57556    0.43767    0.41193   1.00
C3       0.50620    0.59090    0.33840   1.00
C3       0.61303    0.47346    0.39470   1.00
C3       0.39869    0.53337    0.35579   1.00
C3       0.50973    0.42944    0.41408   1.00
H1       0.58296    0.57926    0.35068   1.00
H1       0.61626    0.52363    0.36846   1.00
C5       0.38237    0.46446    0.38708   1.00
C5       0.41220    0.44350    0.40265   1.00
H1       0.53745    0.62184    0.32706   1.00
H1       0.66098    0.48067    0.39222   1.00
H1       0.34970    0.52340    0.35654   1.00
H1       0.48310    0.40297    0.42652   1.00
C6       0.30742    0.44295    0.38766   1.00
C6       0.37336    0.41019    0.42192   1.00
H2       0.28593    0.42701    0.37252   1.00
H2       0.40747    0.43221    0.43486   1.00
H2       0.27799    0.39624    0.39629   1.00
H2       0.33487    0.42418    0.42514   1.00
C6       0.29369    0.49934    0.39642   1.00
C6       0.33870    0.33049    0.42161   1.00
H2       0.33011    0.54880    0.38991   1.00
H2       0.37442    0.31578    0.41553   1.00
C6       0.22049    0.48909    0.39361   1.00
C6       0.31027    0.29178    0.44214   1.00
H2       0.30521    0.50403    0.41262   1.00
H2       0.29681    0.31117    0.41069   1.00
C6       0.20414    0.49283    0.37095   1.00
C6       0.36832    0.30813    0.45752   1.00
C6       0.16508    0.42033    0.40265   1.00
C6       0.25822    0.30878    0.45184   1.00
C6       0.21691    0.54732    0.40495   1.00
C6       0.27309    0.21391    0.43791   1.00
H2       0.24297    0.54035    0.36403   1.00
H2       0.40654    0.29772    0.45100   1.00
H2       0.20165    0.45071    0.36228   1.00
H2       0.39401    0.36142    0.46215   1.00
H2       0.15503    0.49038    0.36927   1.00
H2       0.34851    0.27738    0.47123   1.00
H2       0.11485    0.41586    0.40192   1.00
H2       0.23511    0.27791    0.46537   1.00
H2       0.16224    0.37745    0.39429   1.00
H2       0.28285    0.36215    0.45640   1.00
H2       0.17617    0.41577    0.41849   1.00
H2       0.21754    0.29907    0.44117   1.00
H2       0.25464    0.59711    0.39899   1.00
H2       0.30786    0.19905    0.43123   1.00
H2       0.16676    0.54263    0.40332   1.00
H2       0.25268    0.18461    0.45185   1.00
H2       0.22666    0.54653    0.42113   1.00
H2       0.23059    0.19893    0.42744   1.00
C4       0.15923    0.30537    0.20218   1.00
C4       0.18976    0.36224    0.21571   1.00
C3       0.08882    0.25491    0.20323   1.00
C3       0.15079    0.37651    0.22979   1.00
C3       0.19989    0.29781    0.18694   1.00
C3       0.26196    0.40715    0.21534   1.00
C2       0.09667    0.19217    0.17419   1.00
C2       0.25182    0.47528    0.24377   1.00
C3       0.05831    0.20018    0.18962   1.00
C3       0.18078    0.43106    0.24348   1.00
C3       0.16678    0.24156    0.17330   1.00
C3       0.29055    0.46191    0.22960   1.00
H1       0.05722    0.25565    0.21405   1.00
H1       0.09908    0.34820    0.23050   1.00
C5       0.27164    0.34540    0.18567   1.00
C5       0.30354    0.39707    0.20092   1.00
H1       0.00723    0.16566    0.19113   1.00
H1       0.14989    0.43846    0.25331   1.00
H1       0.19389    0.23472    0.16217   1.00
H1       0.34172    0.49465    0.22989   1.00
C6       0.31255    0.34097    0.16817   1.00
C6       0.38043    0.44049    0.20212   1.00
H2       0.28376    0.33233    0.15417   1.00
H2       0.39616    0.44480    0.21793   1.00
H2       0.35782    0.38984    0.16513   1.00
H2       0.40547    0.41488    0.19543   1.00
C6       0.33416    0.28580    0.17141   1.00
C6       0.40891    0.51223    0.19195   1.00
H2       0.29092    0.23906    0.17733   1.00
H2       0.37747    0.53425    0.19636   1.00
C6       0.36311    0.26606    0.15265   1.00
C6       0.48517    0.56679    0.19615   1.00
H2       0.37247    0.30396    0.18344   1.00
H2       0.40204    0.50447    0.17558   1.00
C6       0.30804    0.22959    0.13604   1.00
C6       0.49706    0.58897    0.21873   1.00
C6       0.42548    0.32923    0.14331   1.00
C6       0.53403    0.54043    0.19010   1.00
C6       0.38668    0.21573    0.15976   1.00
C6       0.50378    0.63108    0.18321   1.00
H2       0.26283    0.18534    0.14224   1.00
H2       0.46252    0.60682    0.22357   1.00
H2       0.29214    0.26353    0.12947   1.00
H2       0.48896    0.54708    0.22863   1.00
H2       0.32730    0.21184    0.12368   1.00
H2       0.54916    0.63033    0.22122   1.00
H2       0.44823    0.31433    0.13119   1.00
H2       0.58721    0.58046    0.19172   1.00
H2       0.41072    0.36422    0.13681   1.00
H2       0.52623    0.49797    0.19972   1.00
H2       0.46446    0.35666    0.15480   1.00
H2       0.52570    0.52314    0.17437   1.00
H2       0.34427    0.16976    0.16630   1.00
H2       0.47115    0.65221    0.18705   1.00
H2       0.40695    0.20005    0.14713   1.00
H2       0.55657    0.67094    0.18572   1.00
H2       0.42664    0.23905    0.17122   1.00
H2       0.49774    0.61899    0.16705   1.00
C4       0.70262    0.86793    0.20482   1.00
C4       0.64921    0.84258    0.21955   1.00
C3       0.70232    0.90461    0.18729   1.00
C3       0.59561    0.85822    0.21893   1.00
C3       0.75884    0.85656    0.20744   1.00
C3       0.64862    0.79998    0.23565   1.00
C2       0.81224    0.92212    0.17552   1.00
C2       0.53935    0.78864    0.24877   1.00
C3       0.75555    0.93122    0.17312   1.00
C3       0.54212    0.83186    0.23301   1.00
C3       0.81221    0.88483    0.19272   1.00
C3       0.59303    0.77387    0.24962   1.00
H1       0.66308    0.91278    0.18406   1.00
H1       0.59378    0.88990    0.20834   1.00
C5       0.76059    0.81754    0.22433   1.00
C5       0.70273    0.78478    0.23757   1.00
H1       0.75242    0.95744    0.16085   1.00
H1       0.50485    0.84485    0.23168   1.00
H1       0.85324    0.87822    0.19414   1.00
H1       0.59057    0.74303    0.26119   1.00
C6       0.82366    0.81209    0.22810   1.00
C6       0.69772    0.73389    0.25335   1.00
H2       0.86874    0.86212    0.22604   1.00
H2       0.64620    0.69011    0.25324   1.00
H2       0.82823    0.80184    0.24396   1.00
H2       0.72780    0.71051    0.24916   1.00
C6       0.82670    0.75657    0.21466   1.00
C6       0.71937    0.76545    0.27510   1.00
H2       0.81234    0.76031    0.19908   1.00
H2       0.69692    0.79743    0.27828   1.00
C6       0.89584    0.75664    0.21390   1.00
C6       0.70208    0.71505    0.29332   1.00
H2       0.78714    0.70664    0.22004   1.00
H2       0.77442    0.80034    0.27494   1.00
C6       0.95263    0.82161    0.20339   1.00
C6       0.62402    0.67073    0.29667   1.00
C6       0.92008    0.75061    0.23538   1.00
C6       0.73267    0.66789    0.29029   1.00
C6       0.88530    0.69416    0.20130   1.00
C6       0.73342    0.75736    0.31292   1.00
H2       0.93664    0.82795    0.18830   1.00
H2       0.60070    0.70254    0.29852   1.00
H2       0.96564    0.86732    0.21213   1.00
H2       0.59917    0.63651    0.28393   1.00
H2       0.99920    0.81901    0.20167   1.00
H2       0.61261    0.63921    0.31022   1.00
H2       0.96564    0.74579    0.23458   1.00
H2       0.72453    0.63639    0.30369   1.00
H2       0.93274    0.79565    0.24446   1.00
H2       0.70889    0.63363    0.27748   1.00
H2       0.88045    0.70602    0.24328   1.00
H2       0.78740    0.69782    0.28748   1.00
H2       0.86881    0.69630    0.18589   1.00
H2       0.71292    0.79111    0.31587   1.00
H2       0.93242    0.69223    0.20022   1.00
H2       0.72230    0.72434    0.32612   1.00
H2       0.84669    0.64653    0.20820   1.00
H2       0.78874    0.78877    0.31165   1.00
C4       0.13282    0.83625    0.20511   1.00
C4       0.15871    0.80866    0.21982   1.00
C3       0.08508    0.79523    0.18992   1.00
C3       0.13342    0.73728    0.22172   1.00
C3       0.15503    0.90750    0.20535   1.00
C3       0.21186    0.85338    0.23330   1.00
C2       0.07787    0.89138    0.17596   1.00
C2       0.21333    0.75301    0.24891   1.00
C3       0.05811    0.82177    0.17584   1.00
C3       0.16004    0.71021    0.23574   1.00
C3       0.12604    0.93244    0.19081   1.00
C3       0.23782    0.82379    0.24728   1.00
H1       0.06862    0.74466    0.18838   1.00
H1       0.09424    0.70223    0.21313   1.00
C5       0.20514    0.95186    0.21973   1.00
C5       0.23741    0.92548    0.23268   1.00
H1       0.02365    0.78945    0.16531   1.00
H1       0.13976    0.65829    0.23630   1.00
H1       0.14021    0.98271    0.19059   1.00
H1       0.27593    0.85397    0.25702   1.00
C6       0.22274    1.02562    0.22123   1.00
C6       0.29847    0.97277    0.24551   1.00
H2       0.17588    1.02799    0.22067   1.00
H2       0.33662    0.95698    0.24448   1.00
H2       0.24236    1.04681    0.23614   1.00
H2       0.32581    1.02384    0.23914   1.00
C6       0.27513    1.07247    0.20473   1.00
C6       0.27954    0.97740    0.26809   1.00
H2       0.26101    1.04681    0.19001   1.00
H2       0.24379    0.92632    0.27373   1.00
C6       0.28554    1.14572    0.20188   1.00
C6       0.33937    1.01226    0.28372   1.00
H2       0.32444    1.07739    0.20840   1.00
H2       0.25121    1.00478    0.26824   1.00
C6       0.22041    1.14338    0.19348   1.00
C6       0.37568    0.97024    0.28688   1.00
C6       0.30664    1.18662    0.22199   1.00
C6       0.39254    1.08567    0.27714   1.00
C6       0.34358    1.18470    0.18623   1.00
C6       0.30951    1.01664    0.30450   1.00
H2       0.20353    1.11388    0.17944   1.00
H2       0.33930    0.91778    0.29122   1.00
H2       0.17855    1.12031    0.20430   1.00
H2       0.40150    0.96863    0.27314   1.00
H2       0.22962    1.19455    0.19022   1.00
H2       0.41411    0.99239    0.29881   1.00
H2       0.31850    1.23910    0.21954   1.00
H2       0.43139    1.11121    0.28881   1.00
H2       0.26560    1.16391    0.23311   1.00
H2       0.41852    1.08520    0.26327   1.00
H2       0.35159    1.18783    0.22845   1.00
H2       0.36806    1.11595    0.27440   1.00
H2       0.33089    1.15827    0.17165   1.00
H2       0.27208    0.96595    0.30996   1.00
H2       0.35248    1.23613    0.18362   1.00
H2       0.34939    1.04027    0.31599   1.00
H2       0.39138    1.18926    0.19150   1.00
H2       0.28434    1.04692    0.30336   1.00
C4       0.97264    0.49418    0.63139   1.00
C4       1.02936    0.52511    0.61781   1.00
C3       0.92995    0.42212    0.63295   1.00
C3       1.05165    0.48633    0.60645   1.00
C3       0.95719    0.53612    0.64397   1.00
C3       1.06585    0.59755    0.61533   1.00
C2       0.85994    0.43148    0.65955   1.00
C2       1.14196    0.58731    0.58960   1.00
C3       0.87551    0.39160    0.64666   1.00
C3       1.10599    0.51631    0.59269   1.00
C3       0.90153    0.50302    0.65781   1.00
C3       1.12066    0.62606    0.60108   1.00
H1       0.93640    0.38911    0.62405   1.00
H1       1.02966    0.43489    0.60789   1.00
C5       0.99656    0.60900    0.64246   1.00
C5       1.04760    0.63953    0.62698   1.00
H1       0.84683    0.33933    0.64712   1.00
H1       1.11939    0.48550    0.58490   1.00
H1       0.88926    0.53111    0.66710   1.00
H1       1.14753    0.67732    0.59880   1.00
C6       0.98431    0.65268    0.65734   1.00
C6       1.08183    0.71523    0.62264   1.00
H2       0.97889    0.63160    0.67253   1.00
H2       1.08480    0.72308    0.60628   1.00
H2       1.02920    0.70281    0.65909   1.00
H2       1.05005    0.73637    0.62719   1.00
C6       0.92198    0.66140    0.65152   1.00
C6       1.15349    0.75728    0.63296   1.00
H2       0.87921    0.61218    0.64686   1.00
H2       1.18234    0.73082    0.63093   1.00
C6       0.89518    0.69235    0.66790   1.00
C6       1.19991    0.83296    0.62599   1.00
H2       0.93595    0.69349    0.63799   1.00
H2       1.14538    0.75705    0.64930   1.00
C6       0.86404    0.64418    0.68641   1.00
C6       1.22299    0.83737    0.60362   1.00
C6       0.95229    0.76299    0.67529   1.00
C6       1.16354    0.87505    0.62856   1.00
C6       0.83793    0.70193    0.65827   1.00
C6       1.26502    0.86614    0.63939   1.00
H2       0.82427    0.59349    0.68166   1.00
H2       1.24789    0.80724    0.60123   1.00
H2       0.90256    0.63850    0.69466   1.00
H2       1.18000    0.81872    0.59321   1.00
H2       0.84129    0.66394    0.69707   1.00
H2       1.25905    0.88993    0.59934   1.00
H2       0.93203    0.78626    0.68560   1.00
H2       1.19795    0.92874    0.62505   1.00
H2       0.99174    0.75848    0.68343   1.00
H2       1.11988    0.85670    0.61840   1.00
H2       0.97604    0.79748    0.66250   1.00
H2       1.14550    0.87163    0.64409   1.00
H2       0.79589    0.65330    0.65298   1.00
H2       1.29307    0.83871    0.63797   1.00
H2       0.81721    0.72306    0.66920   1.00
H2       1.29936    0.91905    0.63501   1.00
H2       0.85713    0.73661    0.64534   1.00
H2       1.25215    0.86583    0.65536   1.00
C4       0.52104    0.02761    0.63129   1.00
C4       0.49501    -0.02919   0.61774   1.00
C3       0.49572    0.07393    0.63163   1.00
C3       0.43724    -0.04777   0.60512   1.00
C3       0.57450    0.03938    0.64512   1.00
C3       0.52728    -0.06958   0.61659   1.00
C2       0.57132    0.14054    0.65937   1.00
C2       0.44435    -0.14199   0.58960   1.00
C3       0.51977    0.12850    0.64530   1.00
C3       0.41279    -0.10221   0.59140   1.00
C3       0.59731    0.09532    0.65886   1.00
C3       0.50104    -0.12436   0.60233   1.00
H1       0.45933    0.07015    0.62183   1.00
H1       0.41033    -0.02286   0.60557   1.00
C5       0.60401    -0.00381   0.64491   1.00
C5       0.58387    -0.05512   0.62952   1.00
H1       0.49921    0.15991    0.64483   1.00
H1       0.37108    -0.11283   0.58266   1.00
H1       0.63491    0.10506    0.66902   1.00
H1       0.52290    -0.15395   0.60097   1.00
C6       0.65535    0.00477    0.66102   1.00
C6       0.62201    -0.09357   0.62663   1.00
H2       0.63747    0.01152    0.67572   1.00
H2       0.62997    -0.09701   0.61047   1.00
H2       0.65665    -0.04206   0.66340   1.00
H2       0.67413    -0.06457   0.63215   1.00
C6       0.72936    0.06405    0.65631   1.00
C6       0.58606    -0.16555   0.63697   1.00
H2       0.72735    0.10877    0.65102   1.00
H2       0.53133    -0.19133   0.63388   1.00
C6       0.78319    0.08754    0.67380   1.00
C6       0.61215    -0.21572   0.63129   1.00
H2       0.74858    0.04826    0.64343   1.00
H2       0.59071    -0.15773   0.65338   1.00
C6       0.76521    0.12100    0.69148   1.00
C6       0.59733    -0.23823   0.60877   1.00
C6       0.79032    0.02746    0.68216   1.00
C6       0.68951    -0.18384   0.63543   1.00
C6       0.85358    0.14187    0.66525   1.00
C6       0.57380    -0.28074   0.64458   1.00
H2       0.75872    0.16295    0.68602   1.00
H2       0.54324    -0.25996   0.60527   1.00
H2       0.71820    0.08440    0.69903   1.00
H2       0.62610    -0.19554   0.59852   1.00
H2       0.80537    0.14143    0.70293   1.00
H2       0.61137    -0.27675   0.60532   1.00
H2       0.83133    0.04523    0.69331   1.00
H2       0.70618    -0.22086   0.63280   1.00
H2       0.74349    -0.01014   0.68961   1.00
H2       0.71922    -0.14052   0.62544   1.00
H2       0.80158    0.00209    0.66994   1.00
H2       0.70154    -0.16624   0.65108   1.00
H2       0.85153    0.18585    0.65933   1.00
H2       0.51884    -0.30569   0.64207   1.00
H2       0.89289    0.16024    0.67697   1.00
H2       0.58999    -0.31763   0.64107   1.00
H2       0.86977    0.12087    0.65296   1.00
H2       0.58338    -0.26834   0.66068   1.00
C4       0.50654    0.47895    0.63130   1.00
C4       0.47577    0.50497    0.61774   1.00
C3       0.57819    0.50440    0.63168   1.00
C3       0.51495    0.56285    0.60516   1.00
C3       0.46483    0.42535    0.64508   1.00
C3       0.40310    0.47257    0.61655   1.00
C2       0.56919    0.42868    0.65938   1.00
C2       0.41362    0.55562    0.58960   1.00
C3       0.60872    0.48036    0.64534   1.00
C3       0.48495    0.58729    0.59144   1.00
C3       0.49796    0.40255    0.65883   1.00
C3       0.37456    0.49882    0.60229   1.00
H1       0.61082    0.54089    0.62190   1.00
H1       0.56675    0.58984    0.60564   1.00
C5       0.39211    0.39571    0.64483   1.00
C5       0.36097    0.41586    0.62944   1.00
H1       0.66071    0.50102    0.64490   1.00
H1       0.51604    0.62909    0.58273   1.00
H1       0.47008    0.36485    0.66895   1.00
H1       0.32311    0.47686    0.60090   1.00
C6       0.34932    0.34421    0.66091   1.00
C6       0.28440    0.37760    0.62651   1.00
H2       0.37384    0.36203    0.67562   1.00
H2       0.27311    0.36974    0.61034   1.00
H2       0.30111    0.34278    0.66327   1.00
H2       0.26134    0.32545    0.63199   1.00
C6       0.33478    0.27029    0.65615   1.00
C6       0.24817    0.41335    0.63685   1.00
H2       0.38159    0.27244    0.65089   1.00
H2       0.27704    0.46811    0.63378   1.00
C6       0.30441    0.21633    0.67361   1.00
C6       0.17192    0.38715    0.63112   1.00
H2       0.29986    0.25110    0.64326   1.00
H2       0.25124    0.40859    0.65325   1.00
C6       0.35575    0.23428    0.69132   1.00
C6       0.16433    0.40209    0.60860   1.00
C6       0.23708    0.20898    0.68194   1.00
C6       0.12653    0.30974    0.63521   1.00
C6       0.28855    0.14604    0.66502   1.00
C6       0.14503    0.42529    0.64442   1.00
H2       0.40427    0.24092    0.68588   1.00
H2       0.19663    0.45622    0.60514   1.00
H2       0.36600    0.28120    0.69889   1.00
H2       0.17842    0.37347    0.59835   1.00
H2       0.33601    0.19404    0.70275   1.00
H2       0.11177    0.38797    0.60513   1.00
H2       0.21383    0.16789    0.69307   1.00
H2       0.07284    0.29298    0.63255   1.00
H2       0.24616    0.25573    0.68942   1.00
H2       0.14030    0.28017    0.62522   1.00
H2       0.20052    0.19774    0.66970   1.00
H2       0.13203    0.29763    0.65086   1.00
H2       0.33467    0.14824    0.65912   1.00
H2       0.17496    0.48028    0.64195   1.00
H2       0.26760    0.10664    0.67672   1.00
H2       0.09195    0.40903    0.64088   1.00
H2       0.25144    0.12987    0.65271   1.00
H2       0.14777    0.41562    0.66052   1.00
C4       0.50969    0.03753    0.12789   1.00
C4       0.47989    -0.01621   0.11328   1.00
C3       0.57256    0.05606    0.13777   1.00
C3       0.51419    -0.05029   0.10598   1.00
C3       0.47598    0.07465    0.13301   1.00
C3       0.41331    -0.03727   0.10550   1.00
C2       0.57169    0.14839    0.15668   1.00
C2       0.41833    -0.12713   0.08450   1.00
C3       0.60289    0.10998    0.15165   1.00
C3       0.48433    -0.10429   0.09211   1.00
C3       0.50876    0.12947    0.14714   1.00
C3       0.38456    -0.09272   0.09147   1.00
H1       0.59835    0.03061    0.13540   1.00
H1       0.56243    -0.03671   0.11032   1.00
C5       0.41117    0.05650    0.12420   1.00
C5       0.37743    -0.00299   0.11163   1.00
H1       0.64842    0.12097    0.15820   1.00
H1       0.51163    -0.12694   0.08750   1.00
H1       0.48661    0.15735    0.15107   1.00
H1       0.33715    -0.10946   0.08570   1.00
C6       0.37963    0.10071    0.12809   1.00
C6       0.30430    -0.03043   0.10496   1.00
H2       0.41897    0.15414    0.12676   1.00
H2       0.27657    -0.08572   0.10660   1.00
H2       0.34474    0.09591    0.11604   1.00
H2       0.27671    -0.01563   0.11535   1.00
C6       0.34144    0.08551    0.14894   1.00
C6       0.29798    -0.00810   0.08293   1.00
H2       0.37247    0.08041    0.16075   1.00
H2       0.33331    -0.01363   0.07288   1.00
C6       0.32012    0.13761    0.15662   1.00
C6       0.22583    -0.04523   0.07277   1.00
H2       0.29560    0.03536    0.14786   1.00
H2       0.31589    0.04653    0.08327   1.00
C6       0.38314    0.20782    0.16168   1.00
C6       0.20117    -0.12159   0.06873   1.00
C6       0.27499    0.14764    0.14091   1.00
C6       0.17213    -0.03943   0.08585   1.00
C6       0.27803    0.10934    0.17641   1.00
C6       0.23043    -0.01096   0.05198   1.00
H2       0.41664    0.20236    0.17249   1.00
H2       0.23853    -0.12747   0.05979   1.00
H2       0.41287    0.23261    0.14816   1.00
H2       0.19277    -0.14979   0.08282   1.00
H2       0.36780    0.24223    0.16833   1.00
H2       0.15311    -0.14584   0.06039   1.00
H2       0.25640    0.18020    0.14698   1.00
H2       0.12325    -0.06118   0.07799   1.00
H2       0.30368    0.17181    0.12716   1.00
H2       0.16347    -0.06681   0.10014   1.00
H2       0.23096    0.09877    0.13676   1.00
H2       0.18892    0.01380    0.08928   1.00
H2       0.30789    0.10199    0.18811   1.00
H2       0.26726    -0.01429   0.04205   1.00
H2       0.26230    0.14425    0.18245   1.00
H2       0.18126    -0.03548   0.04422   1.00
H2       0.23203    0.06037    0.17373   1.00
H2       0.24630    0.04284    0.05386   1.00
C4       0.97172    0.47981    0.13105   1.00
C4       1.02671    0.50813    0.11683   1.00
C3       0.97294    0.44486    0.14887   1.00
C3       1.08955    0.50979    0.12048   1.00
C3       0.91280    0.48612    0.12753   1.00
C3       1.01953    0.53617    0.09818   1.00
C2       0.86201    0.42545    0.16031   1.00
C2       1.13672    0.56234    0.08766   1.00
C3       0.91998    0.41876    0.16313   1.00
C3       1.14281    0.53573    0.10633   1.00
C3       0.86014    0.45917    0.14248   1.00
C3       1.07485    0.56175    0.08412   1.00
H1       1.01205    0.43645    0.15206   1.00
H1       1.09923    0.49284    0.13366   1.00
C5       0.90738    0.51825    0.10944   1.00
C5       0.95858    0.53853    0.09402   1.00
H1       0.92407    0.39432    0.17572   1.00
H1       1.18674    0.53522    0.10984   1.00
H1       0.81766    0.46307    0.14059   1.00
H1       1.07148    0.58166    0.07064   1.00
C6       0.84822    0.53103    0.10695   1.00
C6       0.94875    0.56160    0.07337   1.00
H2       0.84021    0.55051    0.12118   1.00
H2       0.96441    0.53815    0.06170   1.00
H2       0.86071    0.57327    0.09670   1.00
H2       0.89508    0.54077    0.06981   1.00
C6       0.78127    0.46676    0.09941   1.00
C6       0.98636    0.64113    0.07107   1.00
H2       0.77362    0.42176    0.10776   1.00
H2       1.03775    0.66340    0.07738   1.00
C6       0.71344    0.46914    0.10060   1.00
C6       0.99257    0.67077    0.04922   1.00
H2       0.78924    0.45745    0.08366   1.00
H2       0.95998    0.66000    0.08065   1.00
C6       0.69246    0.47129    0.12287   1.00
C6       1.03884    0.65548    0.03543   1.00
C6       0.71903    0.53109    0.08891   1.00
C6       0.92184    0.64267    0.03906   1.00
C6       0.65553    0.40330    0.09073   1.00
C6       1.02578    0.74945    0.05080   1.00
H2       0.68916    0.42879    0.13162   1.00
H2       1.08885    0.67371    0.04233   1.00
H2       0.72897    0.51842    0.13038   1.00
H2       1.01639    0.60103    0.03263   1.00
H2       0.64283    0.46816    0.12358   1.00
H2       1.04668    0.68033    0.02070   1.00
H2       0.67011    0.52959    0.08861   1.00
H2       0.92630    0.66728    0.02445   1.00
H2       0.75589    0.57887    0.09609   1.00
H2       0.89819    0.58803    0.03631   1.00
H2       0.73514    0.53158    0.07329   1.00
H2       0.88778    0.65151    0.04866   1.00
H2       0.64896    0.35792    0.09857   1.00
H2       1.07630    0.77199    0.05770   1.00
H2       0.60689    0.40237    0.09131   1.00
H2       1.03164    0.77262    0.03587   1.00
H2       0.66673    0.39953    0.07483   1.00
H2       0.99472    0.76354    0.06004   1.00
C4       0.52086    0.49315    0.13125   1.00
C4       0.49238    0.51996    0.11714   1.00
C3       0.56464    0.53297    0.14737   1.00
C3       0.49979    0.58592    0.11940   1.00
C3       0.50562    0.42402    0.12939   1.00
C3       0.45480    0.47996    0.10004   1.00
C2       0.57581    0.43802    0.16040   1.00
C2       0.43767    0.57558    0.08808   1.00
C3       0.59106    0.50627    0.16157   1.00
C3       0.47362    0.61312    0.10528   1.00
C3       0.53325    0.39867    0.14424   1.00
C3       0.42929    0.50968    0.08595   1.00
H1       0.57952    0.58306    0.14927   1.00
H1       0.52390    0.61640    0.13150   1.00
C5       0.46419    0.38229    0.11298   1.00
C5       0.44320    0.41209    0.09741   1.00
H1       0.62211    0.53756    0.17289   1.00
H1       0.48093    0.66112    0.10774   1.00
H1       0.52318    0.34964    0.14351   1.00
H1       0.40272    0.48301    0.07353   1.00
C6       0.44253    0.30730    0.11244   1.00
C6       0.40973    0.37316    0.07817   1.00
H2       0.42666    0.28591    0.12759   1.00
H2       0.43171    0.40718    0.06521   1.00
H2       0.39576    0.27788    0.10384   1.00
H2       0.42360    0.33458    0.07495   1.00
C6       0.49878    0.29338    0.10366   1.00
C6       0.33004    0.33864    0.07852   1.00
H2       0.54831    0.32977    0.11014   1.00
H2       0.31547    0.37447    0.08459   1.00
C6       0.48840    0.22014    0.10650   1.00
C6       0.29119    0.31014    0.05801   1.00
H2       0.50338    0.30480    0.08745   1.00
H2       0.31073    0.29681    0.08946   1.00
C6       0.49225    0.20391    0.12916   1.00
C6       0.30754    0.36812    0.04261   1.00
C6       0.41954    0.16477    0.09751   1.00
C6       0.30799    0.25794    0.04832   1.00
C6       0.54649    0.21637    0.09514   1.00
C6       0.21335    0.27311    0.06229   1.00
H2       0.53985    0.24271    0.13605   1.00
H2       0.29727    0.40644    0.04912   1.00
H2       0.45023    0.20155    0.13785   1.00
H2       0.36080    0.39370    0.03795   1.00
H2       0.48970    0.15475    0.13087   1.00
H2       0.27670    0.34827    0.02892   1.00
H2       0.41497    0.11449    0.09826   1.00
H2       0.27703    0.23479    0.03482   1.00
H2       0.37675    0.16206    0.10588   1.00
H2       0.36133    0.28245    0.04373   1.00
H2       0.41491    0.17577    0.08167   1.00
H2       0.29828    0.21730    0.05902   1.00
H2       0.59635    0.25406    0.10107   1.00
H2       0.19861    0.30799    0.06897   1.00
H2       0.54171    0.16618    0.09679   1.00
H2       0.18395    0.25265    0.04837   1.00
H2       0.54562    0.22603    0.07895   1.00
H2       0.19836    0.23066    0.07278   1.00
C4       0.70434    0.84234    0.70550   1.00
C4       0.65048    0.81228    0.72005   1.00
C3       0.72719    0.90829    0.69712   1.00
C3       0.62065    0.84875    0.72883   1.00
C3       0.73712    0.80573    0.69886   1.00
C3       0.62491    0.74320    0.72628   1.00
C2       0.81549    0.90456    0.67680   1.00
C2       0.53930    0.75053    0.74875   1.00
C3       0.78127    0.93870    0.68329   1.00
C3       0.56654    0.81883    0.74266   1.00
C3       0.79225    0.83866    0.68484   1.00
C3       0.56949    0.71451    0.74032   1.00
H1       0.70494    0.93644    0.70060   1.00
H1       0.63758    0.89863    0.72565   1.00
C5       0.71447    0.73800    0.70611   1.00
C5       0.65479    0.70481    0.71862   1.00
H1       0.79550    0.98651    0.67787   1.00
H1       0.54708    0.84779    0.74837   1.00
H1       0.81713    0.81446    0.67987   1.00
H1       0.54961    0.66540    0.74500   1.00
C6       0.75420    0.70278    0.70065   1.00
C6       0.62258    0.62972    0.72365   1.00
H2       0.80853    0.73892    0.70225   1.00
H2       0.56741    0.60581    0.72210   1.00
H2       0.74676    0.66417    0.71176   1.00
H2       0.63450    0.60248    0.71229   1.00
C6       0.73658    0.66944    0.67904   1.00
C6       0.64340    0.61615    0.74507   1.00
H2       0.73424    0.70478    0.66822   1.00
H2       0.64097    0.65074    0.75617   1.00
C6       0.78470    0.64506    0.66998   1.00
C6       0.60199    0.54201    0.75376   1.00
H2       0.68485    0.62573    0.67962   1.00
H2       0.69713    0.63042    0.74439   1.00
C6       0.85701    0.70590    0.66560   1.00
C6       0.52692    0.52159    0.75829   1.00
C6       0.79060    0.59381    0.68421   1.00
C6       0.60319    0.48909    0.73912   1.00
C6       0.75425    0.60848    0.64951   1.00
C6       0.63514    0.53908    0.77407   1.00
H2       0.85452    0.74359    0.65585   1.00
H2       0.52432    0.55859    0.76834   1.00
H2       0.88313    0.73148    0.67953   1.00
H2       0.49927    0.51851    0.74445   1.00
H2       0.88870    0.68889    0.65800   1.00
H2       0.49979    0.47179    0.76563   1.00
H2       0.82025    0.57344    0.67712   1.00
H2       0.57839    0.43837    0.74593   1.00
H2       0.81605    0.61830    0.69834   1.00
H2       0.57630    0.48572    0.72507   1.00
H2       0.74026    0.55115    0.68788   1.00
H2       0.65549    0.50306    0.73534   1.00
H2       0.74966    0.64276    0.63880   1.00
H2       0.63494    0.57508    0.78505   1.00
H2       0.78638    0.59087    0.64250   1.00
H2       0.60767    0.48828    0.78081   1.00
H2       0.70364    0.56413    0.65166   1.00
H2       0.68791    0.55167    0.77180   1.00
C4       0.13244    0.29690    0.70499   1.00
C4       0.15627    0.35222    0.71903   1.00
C3       0.14172    0.23985    0.70822   1.00
C3       0.18452    0.35104    0.73824   1.00
C3       0.09801    0.29787    0.68692   1.00
C3       0.15197    0.41135    0.71394   1.00
C2       0.08135    0.18343    0.67709   1.00
C2       0.20753    0.46544    0.74703   1.00
C3       0.11671    0.18463    0.69477   1.00
C3       0.20971    0.40598    0.75179   1.00
C3       0.07298    0.24045    0.67367   1.00
C3       0.17855    0.46636    0.72813   1.00
H1       0.16760    0.23659    0.72037   1.00
H1       0.18723    0.30994    0.74318   1.00
C5       0.08966    0.35524    0.68241   1.00
C5       0.12143    0.41433    0.69520   1.00
H1       0.12483    0.14489    0.69802   1.00
H1       0.22972    0.40207    0.76537   1.00
H1       0.04783    0.23906    0.66074   1.00
H1       0.17684    0.50944    0.72499   1.00
C6       0.04687    0.35238    0.66438   1.00
C6       0.12380    0.47991    0.68905   1.00
H2       0.00057    0.30265    0.66401   1.00
H2       0.17458    0.52269    0.69211   1.00
H2       0.02628    0.38630    0.66631   1.00
H2       0.12026    0.48343    0.67270   1.00
C6       0.08649    0.36919    0.64376   1.00
C6       0.06699    0.48977    0.69940   1.00
H2       0.11556    0.34260    0.64301   1.00
H2       0.06354    0.47660    0.71548   1.00
C6       0.04384    0.35319    0.62377   1.00
C6       0.07354    0.56180    0.69781   1.00
H2       0.12466    0.42342    0.64383   1.00
H2       0.01803    0.45228    0.69288   1.00
C6       -0.00433   0.27543    0.62084   1.00
C6       0.13652    0.61657    0.70959   1.00
C6       0.00132    0.38957    0.62331   1.00
C6       0.07789    0.58465    0.67544   1.00
C6       0.09375    0.37943    0.60549   1.00
C6       0.00914    0.55802    0.70743   1.00
H2       0.02402    0.24812    0.62143   1.00
H2       0.13553    0.60141    0.72537   1.00
H2       -0.04354   0.25430    0.63253   1.00
H2       0.18397    0.62491    0.70283   1.00
H2       -0.03029   0.26451    0.60622   1.00
H2       0.13799    0.66548    0.70957   1.00
H2       -0.02436   0.38207    0.60873   1.00
H2       0.07751    0.63257    0.67444   1.00
H2       -0.03785   0.36958    0.63504   1.00
H2       0.12479    0.59263    0.66834   1.00
H2       0.03384    0.44425    0.62576   1.00
H2       0.03485    0.54628    0.66670   1.00
H2       0.12461    0.35473    0.60498   1.00
H2       0.00405    0.54275    0.72333   1.00
H2       0.06629    0.36899    0.59113   1.00
H2       0.01154    0.60736    0.70680   1.00
H2       0.12828    0.43438    0.60646   1.00
H2       -0.03702   0.52112    0.69949   1.00
C4       0.16407    0.86736    0.70505   1.00
C4       0.19553    0.84360    0.71913   1.00
C3       0.09649    0.85528    0.70778   1.00
C3       0.16450    0.81247    0.73792   1.00
C3       0.20081    0.90464    0.68748   1.00
C3       0.26055    0.85091    0.71450   1.00
C2       0.10161    0.91827    0.67712   1.00
C2       0.25754    0.79249    0.74717   1.00
C3       0.06623    0.88019    0.69431   1.00
C3       0.19429    0.78735    0.75149   1.00
C3       0.16829    0.92945    0.67420   1.00
C3       0.28899    0.82431    0.72868   1.00
H1       0.06646    0.82734    0.71954   1.00
H1       0.11940    0.80749    0.74255   1.00
C5       0.26794    0.91594    0.68348   1.00
C5       0.29561    0.88438    0.69621   1.00
H1       0.01742    0.86996    0.69717   1.00
H1       0.16918    0.76520    0.76476   1.00
H1       0.19295    0.95656    0.66162   1.00
H1       0.33492    0.82813    0.72586   1.00
C6       0.30895    0.96157    0.66603   1.00
C6       0.36081    0.88529    0.69048   1.00
H2       0.30364    1.00681    0.66596   1.00
H2       0.35434    0.83489    0.69312   1.00
H2       0.36344    0.98364    0.66847   1.00
H2       0.36972    0.89100    0.67422   1.00
C6       0.28964    0.92435    0.64499   1.00
C6       0.42528    0.94230    0.70167   1.00
H2       0.23417    0.89378    0.64366   1.00
H2       0.41341    0.94336    0.71769   1.00
C6       0.31734    0.96955    0.62550   1.00
C6       0.49245    0.93866    0.70047   1.00
H2       0.30752    0.88760    0.64490   1.00
H2       0.43575    0.99147    0.69557   1.00
C6       0.28558    1.01590    0.62272   1.00
C6       0.48528    0.87526    0.71174   1.00
C6       0.39608    1.01435    0.62587   1.00
C6       0.51400    0.93781    0.67822   1.00
C6       0.29729    0.92194    0.60672   1.00
C6       0.55053    1.00294    0.71094   1.00
H2       0.22994    0.98588    0.62273   1.00
H2       0.46901    0.87377    0.72742   1.00
H2       0.30111    1.05360    0.63479   1.00
H2       0.44810    0.82807    0.70439   1.00
H2       0.30152    1.04366    0.60839   1.00
H2       0.53367    0.87569    0.71203   1.00
H2       0.41522    1.04196    0.61161   1.00
H2       0.56331    0.94020    0.67754   1.00
H2       0.41271    1.05205    0.63799   1.00
H2       0.47703    0.89120    0.67053   1.00
H2       0.41969    0.98309    0.62823   1.00
H2       0.51802    0.98118    0.66982   1.00
H2       0.24199    0.88961    0.60563   1.00
H2       0.53816    1.00563    0.72680   1.00
H2       0.31516    0.95122    0.59268   1.00
H2       0.59853    1.00252    0.71061   1.00
H2       0.31939    0.88883    0.60759   1.00
H2       0.55901    1.04945    0.70340   1.00
