data_IRMOF10_interpen_symm_ligand2lp_label_j.

_audit_creation_method             'generated by an auxiliary program of Tobunporous'

_symmetry_space_group_name_H-M     'P 1'
_symmetry_Int_Tables_number        1
_symmetry_cell_setting             triclinic

_cell_length_a                    22.6523
_cell_length_b                    22.6523
_cell_length_c                    65.9502
_cell_angle_alpha                 90.0000
_cell_angle_beta                  90.0000
_cell_angle_gamma                 120.0000

loop_
_atom_site_label
_atom_site_fract_x
_atom_site_fract_y
_atom_site_fract_z
_atom_site_occupancy
O1       0.00000    -0.00000   0.62500   1.00
Zn      0.00000    -0.00000   0.59589   1.00
Zn      0.94848    1.04288    0.63392   1.00
Zn      0.09439    0.05152    0.63392   1.00
Zn      -0.04288   0.90561    0.63392   1.00
O2       0.93860    0.02610    0.58587   1.00
O2       0.08750    0.06140    0.58587   1.00
O2       -0.02610   0.91250    0.58587   1.00
O2       0.91305    0.07161    0.61181   1.00
O2       0.00462    0.12022    0.65110   1.00
O2       0.87413    0.98074    0.65071   1.00
O2       0.15856    0.08695    0.61181   1.00
O2       0.10660    0.12587    0.65071   1.00
O2       0.11559    0.99538    0.65110   1.00
O2       -0.07161   0.84144    0.61181   1.00
O2       0.87978    0.88441    0.65110   1.00
O2       0.01926    0.89340    0.65071   1.00
C1       0.91390    0.06020    0.59358   1.00
C1       0.14630    0.08610    0.59358   1.00
C1       -0.06020   0.85370    0.59358   1.00
C1       0.06663    0.14397    0.65673   1.00
C1       0.85603    0.92267    0.65673   1.00
C1       0.07733    0.93337    0.65673   1.00
O1       -0.00000   0.00000    0.87500   1.00
Zn      -0.00000   0.00000    0.90411   1.00
Zn      1.04288    0.94848    0.86608   1.00
Zn      0.05152    0.09439    0.86608   1.00
Zn      0.90561    -0.04288   0.86608   1.00
O2       0.02610    0.93860    0.91413   1.00
O2       0.06140    0.08750    0.91413   1.00
O2       0.91250    -0.02610   0.91413   1.00
O2       0.07161    0.91305    0.88819   1.00
O2       0.12022    0.00462    0.84890   1.00
O2       0.98074    0.87413    0.84929   1.00
O2       0.08695    0.15856    0.88819   1.00
O2       0.12587    0.10660    0.84929   1.00
O2       0.99538    0.11559    0.84890   1.00
O2       0.84144    -0.07161   0.88819   1.00
O2       0.88441    0.87978    0.84890   1.00
O2       0.89340    0.01926    0.84929   1.00
C1       0.06020    0.91390    0.90642   1.00
C1       0.08610    0.14630    0.90642   1.00
C1       0.85370    -0.06020   0.90642   1.00
C1       0.14397    0.06663    0.84327   1.00
C1       0.92267    0.85603    0.84327   1.00
C1       0.93337    0.07733    0.84327   1.00
O1       0.00000    0.00000    0.37500   1.00
Zn      0.00000    0.00000    0.40411   1.00
Zn      0.05152    -0.04288   0.36608   1.00
Zn      0.90561    0.94848    0.36608   1.00
Zn      1.04288    0.09439    0.36608   1.00
O2       0.06140    -0.02610   0.41413   1.00
O2       0.91250    0.93860    0.41413   1.00
O2       0.02610    0.08750    0.41413   1.00
O2       0.08695    -0.07161   0.38819   1.00
O2       0.99538    0.87978    0.34890   1.00
O2       0.12587    0.01926    0.34929   1.00
O2       0.84144    0.91305    0.38819   1.00
O2       0.89340    0.87413    0.34929   1.00
O2       0.88441    0.00462    0.34890   1.00
O2       0.07161    0.15856    0.38819   1.00
O2       0.12022    0.11559    0.34890   1.00
O2       0.98074    0.10660    0.34929   1.00
C1       0.08610    -0.06020   0.40642   1.00
C1       0.85370    0.91390    0.40642   1.00
C1       0.06020    0.14630    0.40642   1.00
C1       0.93337    0.85603    0.34327   1.00
C1       0.14397    0.07733    0.34327   1.00
C1       0.92267    0.06663    0.34327   1.00
O1       0.00000    0.00000    0.12500   1.00
Zn      0.00000    0.00000    0.09589   1.00
Zn      -0.04288   0.05152    0.13392   1.00
Zn      0.94848    0.90561    0.13392   1.00
Zn      0.09439    1.04288    0.13392   1.00
O2       -0.02610   0.06140    0.08587   1.00
O2       0.93860    0.91250    0.08587   1.00
O2       0.08750    0.02610    0.08587   1.00
O2       -0.07161   0.08695    0.11181   1.00
O2       0.87978    0.99538    0.15110   1.00
O2       0.01926    0.12587    0.15071   1.00
O2       0.91305    0.84144    0.11181   1.00
O2       0.87413    0.89340    0.15071   1.00
O2       0.00462    0.88441    0.15110   1.00
O2       0.15856    0.07161    0.11181   1.00
O2       0.11559    0.12022    0.15110   1.00
O2       0.10660    0.98074    0.15071   1.00
C1       -0.06020   0.08610    0.09358   1.00
C1       0.91390    0.85370    0.09358   1.00
C1       0.14630    0.06020    0.09358   1.00
C1       0.85603    0.93337    0.15673   1.00
C1       0.07733    0.14397    0.15673   1.00
C1       0.06663    0.92267    0.15673   1.00
O1       0.66667    0.33333    0.95833   1.00
Zn      0.66667    0.33333    0.92922   1.00
Zn      0.61515    0.37621    0.96725   1.00
Zn      0.76106    0.38485    0.96725   1.00
Zn      -0.37621   0.23894    0.96725   1.00
O2       0.60527    0.35943    0.91920   1.00
O2       0.75417    0.39473    0.91920   1.00
O2       0.64057    0.24583    0.91920   1.00
O2       0.57972    0.40494    0.94514   1.00
O2       0.67129    0.45355    0.98443   1.00
O2       0.54080    0.31407    0.98404   1.00
O2       0.82523    0.42028    0.94514   1.00
O2       0.77327    0.45920    0.98404   1.00
O2       -0.21774   0.32871    0.98443   1.00
O2       0.59506    0.17477    0.94514   1.00
O2       0.54645    0.21774    0.98443   1.00
O2       -0.31407   0.22673    0.98404   1.00
C1       0.58057    0.39353    0.92691   1.00
C1       0.81297    0.41943    0.92691   1.00
C1       0.60647    0.18703    0.92691   1.00
C1       0.73330    0.47730    0.99006   1.00
C1       0.52270    0.25600    0.99006   1.00
C1       -0.25600   0.26670    0.99006   1.00
O1       0.66667    0.33333    0.20833   1.00
Zn      0.66667    0.33333    0.23744   1.00
Zn      0.70954    0.28182    0.19942   1.00
Zn      0.71818    0.42773    0.19942   1.00
Zn      0.57227    0.29046    0.19942   1.00
O2       0.69277    0.27193    0.24746   1.00
O2       0.72807    0.42083    0.24746   1.00
O2       0.57917    0.30723    0.24746   1.00
O2       0.73828    0.24638    0.22152   1.00
O2       0.78688    0.33796    0.18224   1.00
O2       0.64740    0.20747    0.18263   1.00
O2       0.75362    0.49189    0.22152   1.00
O2       0.79253    0.43994    0.18263   1.00
O2       0.66204    0.44893    0.18224   1.00
O2       0.50811    0.26172    0.22152   1.00
O2       0.55107    0.21312    0.18224   1.00
O2       0.56006    0.35260    0.18263   1.00
C1       0.72687    0.24723    0.23975   1.00
C1       0.75277    0.47963    0.23975   1.00
C1       0.52037    0.27313    0.23975   1.00
C1       0.81063    0.39997    0.17661   1.00
C1       0.58933    0.18937    0.17661   1.00
C1       0.60003    0.41067    0.17661   1.00
O1       0.66667    0.33333    0.70833   1.00
Zn      0.66667    0.33333    0.73744   1.00
Zn      0.71818    0.29046    0.69942   1.00
Zn      0.57227    0.28182    0.69942   1.00
Zn      0.70954    0.42773    0.69942   1.00
O2       0.72807    0.30723    0.74746   1.00
O2       0.57917    0.27193    0.74746   1.00
O2       0.69277    0.42083    0.74746   1.00
O2       0.75362    0.26172    0.72152   1.00
O2       0.66204    0.21312    0.68224   1.00
O2       0.79253    0.35260    0.68263   1.00
O2       0.50811    0.24638    0.72152   1.00
O2       0.56006    0.20747    0.68263   1.00
O2       0.55107    0.33796    0.68224   1.00
O2       0.73828    0.49189    0.72152   1.00
O2       0.78688    0.44893    0.68224   1.00
O2       0.64740    0.43994    0.68263   1.00
C1       0.75277    0.27313    0.73975   1.00
C1       0.52037    0.24723    0.73975   1.00
C1       0.72687    0.47963    0.73975   1.00
C1       0.60003    0.18937    0.67661   1.00
C1       0.81063    0.41067    0.67661   1.00
C1       0.58933    0.39997    0.67661   1.00
O1       0.66667    0.33333    0.45833   1.00
Zn      0.66667    0.33333    0.42922   1.00
Zn      -0.37621   0.38485    0.46725   1.00
Zn      0.61515    0.23894    0.46725   1.00
Zn      0.76106    0.37621    0.46725   1.00
O2       0.64057    0.39473    0.41920   1.00
O2       0.60527    0.24583    0.41920   1.00
O2       0.75417    0.35943    0.41920   1.00
O2       0.59506    0.42028    0.44514   1.00
O2       0.54645    0.32871    0.48443   1.00
O2       -0.31407   0.45920    0.48404   1.00
O2       0.57972    0.17477    0.44514   1.00
O2       0.54080    0.22673    0.48404   1.00
O2       0.67129    0.21774    0.48443   1.00
O2       0.82523    0.40494    0.44514   1.00
O2       -0.21774   0.45355    0.48443   1.00
O2       0.77327    0.31407    0.48404   1.00
C1       0.60647    0.41943    0.42691   1.00
C1       0.58057    0.18703    0.42691   1.00
C1       0.81297    0.39353    0.42691   1.00
C1       0.52270    0.26670    0.49006   1.00
C1       -0.25600   0.47730    0.49006   1.00
C1       0.73330    0.25600    0.49006   1.00
O1       0.33333    0.66667    0.29167   1.00
Zn      0.33333    0.66667    0.26256   1.00
Zn      0.28182    0.70954    0.30058   1.00
Zn      0.42773    0.71818    0.30058   1.00
Zn      0.29046    0.57227    0.30058   1.00
O2       0.27193    0.69277    0.25254   1.00
O2       0.42083    0.72807    0.25254   1.00
O2       0.30723    0.57917    0.25254   1.00
O2       0.24638    0.73828    0.27848   1.00
O2       0.33796    0.78688    0.31776   1.00
O2       0.20747    0.64740    0.31737   1.00
O2       0.49189    0.75362    0.27848   1.00
O2       0.43994    0.79253    0.31737   1.00
O2       0.44893    0.66204    0.31776   1.00
O2       0.26172    0.50811    0.27848   1.00
O2       0.21312    0.55107    0.31776   1.00
O2       0.35260    0.56006    0.31737   1.00
C1       0.24723    0.72687    0.26025   1.00
C1       0.47963    0.75277    0.26025   1.00
C1       0.27313    0.52037    0.26025   1.00
C1       0.39997    0.81063    0.32339   1.00
C1       0.18937    0.58933    0.32339   1.00
C1       0.41067    0.60003    0.32339   1.00
O1       0.33333    0.66667    0.54167   1.00
Zn      0.33333    0.66667    0.57078   1.00
Zn      0.37621    0.61515    0.53275   1.00
Zn      0.38485    0.76106    0.53275   1.00
Zn      0.23894    -0.37621   0.53275   1.00
O2       0.35943    0.60527    0.58080   1.00
O2       0.39473    0.75417    0.58080   1.00
O2       0.24583    0.64057    0.58080   1.00
O2       0.40494    0.57972    0.55486   1.00
O2       0.45355    0.67129    0.51557   1.00
O2       0.31407    0.54080    0.51596   1.00
O2       0.42028    0.82523    0.55486   1.00
O2       0.45920    0.77327    0.51596   1.00
O2       0.32871    -0.21774   0.51557   1.00
O2       0.17477    0.59506    0.55486   1.00
O2       0.21774    0.54645    0.51557   1.00
O2       0.22673    -0.31407   0.51596   1.00
C1       0.39353    0.58057    0.57309   1.00
C1       0.41943    0.81297    0.57309   1.00
C1       0.18703    0.60647    0.57309   1.00
C1       0.47730    0.73330    0.50994   1.00
C1       0.25600    0.52270    0.50994   1.00
C1       0.26670    -0.25600   0.50994   1.00
O1       0.33333    0.66667    0.04167   1.00
Zn      0.33333    0.66667    0.07078   1.00
Zn      0.38485    -0.37621   0.03275   1.00
Zn      0.23894    0.61515    0.03275   1.00
Zn      0.37621    0.76106    0.03275   1.00
O2       0.39473    0.64057    0.08080   1.00
O2       0.24583    0.60527    0.08080   1.00
O2       0.35943    0.75417    0.08080   1.00
O2       0.42028    0.59506    0.05486   1.00
O2       0.32871    0.54645    0.01557   1.00
O2       0.45920    -0.31407   0.01596   1.00
O2       0.17477    0.57972    0.05486   1.00
O2       0.22673    0.54080    0.01596   1.00
O2       0.21774    0.67129    0.01557   1.00
O2       0.40494    0.82523    0.05486   1.00
O2       0.45355    -0.21774   0.01557   1.00
O2       0.31407    0.77327    0.01596   1.00
C1       0.41943    0.60647    0.07309   1.00
C1       0.18703    0.58057    0.07309   1.00
C1       0.39353    0.81297    0.07309   1.00
C1       0.26670    0.52270    0.00994   1.00
C1       0.47730    -0.25600   0.00994   1.00
C1       0.25600    0.73330    0.00994   1.00
O1       0.33333    0.66667    0.79167   1.00
Zn      0.33333    0.66667    0.76256   1.00
Zn      0.29046    0.71818    0.80058   1.00
Zn      0.28182    0.57227    0.80058   1.00
Zn      0.42773    0.70954    0.80058   1.00
O2       0.30723    0.72807    0.75254   1.00
O2       0.27193    0.57917    0.75254   1.00
O2       0.42083    0.69277    0.75254   1.00
O2       0.26172    0.75362    0.77848   1.00
O2       0.21312    0.66204    0.81776   1.00
O2       0.35260    0.79253    0.81737   1.00
O2       0.24638    0.50811    0.77848   1.00
O2       0.20747    0.56006    0.81737   1.00
O2       0.33796    0.55107    0.81776   1.00
O2       0.49189    0.73828    0.77848   1.00
O2       0.44893    0.78688    0.81776   1.00
O2       0.43994    0.64740    0.81737   1.00
C1       0.27313    0.75277    0.76025   1.00
C1       0.24723    0.52037    0.76025   1.00
C1       0.47963    0.72687    0.76025   1.00
C1       0.18937    0.60003    0.82339   1.00
C1       0.41067    0.81063    0.82339   1.00
C1       0.39997    0.58933    0.82339   1.00
C2       -0.21121   0.54194    0.50324   1.00
C3       -0.21564   0.59806    0.50157   1.00
H1       -0.23663   0.60345    0.49016   1.00
C3       -0.18190   0.53422    0.52023   1.00
H1       -0.17918   0.49487    0.52185   1.00
C3a      -0.19053   0.64842    0.51609   1.00
H1       -0.19379   0.68762    0.51495   1.00
C3b      -0.15616   0.58333    0.53524   1.00
H1       -0.13711   0.57728    0.54699   1.00
C6       -0.16139   0.64080    0.53346   1.00
C6       -0.13488   0.69326    0.54962   1.00
C3c      -0.17755   0.69174    0.56489   1.00
H1       -0.22160   0.65486    0.56596   1.00
C3d      -0.06687   0.74418    0.54860   1.00
H1       -0.03701   0.74710    0.53845   1.00
C3       -0.15198   0.74339    0.57923   1.00
H1       -0.18022   0.74198    0.58972   1.00
C3       -0.04458   0.79687    0.56372   1.00
H1       0.00022    0.83245    0.56336   1.00
C2       -0.08630   0.79640    0.57845   1.00
C2       0.45806    0.24685    0.50324   1.00
C3       0.40194    0.18630    0.50157   1.00
H1       0.39655    0.15992    0.49016   1.00
C3       0.46578    0.28388    0.52023   1.00
H1       0.50513    0.32595    0.52185   1.00
C3a      0.35158    0.16105    0.51609   1.00
H1       0.31238    0.11860    0.51495   1.00
C3b      0.41667    0.26051    0.53524   1.00
H1       0.42272    0.28561    0.54699   1.00
C6       0.35920    0.19781    0.53346   1.00
C6       0.30674    0.17186    0.54962   1.00
C3c      0.30826    0.13071    0.56489   1.00
H1       0.34514    0.12354    0.56596   1.00
C3d      0.25582    0.18895    0.54860   1.00
H1       0.25290    0.21589    0.53845   1.00
C3       0.25661    0.10463    0.57923   1.00
H1       0.25802    0.07780    0.58972   1.00
C3       0.20313    0.15855    0.56372   1.00
H1       0.16755    0.16777    0.56336   1.00
C2       0.20360    0.11730    0.57845   1.00
C2       0.75315    0.21121    0.50324   1.00
C3       0.81370    0.21564    0.50157   1.00
H1       0.84008    0.23663    0.49016   1.00
C3       0.71612    0.18190    0.52023   1.00
H1       0.67405    0.17918    0.52185   1.00
C3a      0.83895    0.19053    0.51609   1.00
H1       0.88140    0.19379    0.51495   1.00
C3b      0.73949    0.15616    0.53524   1.00
H1       0.71439    0.13711    0.54699   1.00
C6       0.80219    0.16139    0.53346   1.00
C6       0.82814    0.13488    0.54962   1.00
C3c      0.86929    0.17755    0.56489   1.00
H1       0.87646    0.22160    0.56596   1.00
C3d      0.81105    0.06687    0.54860   1.00
H1       0.78411    0.03701    0.53845   1.00
C3       0.89537    0.15198    0.57923   1.00
H1       0.92220    0.18022    0.58972   1.00
C3       0.84145    0.04458    0.56372   1.00
H1       0.83223    0.99978    0.56336   1.00
C2       0.88270    0.08630    0.57845   1.00
C2       0.54194    -0.21121   0.99676   1.00
C3       0.59806    -0.21564   0.99843   1.00
H1       0.60345    -0.23663   0.00984   1.00
C3       0.53422    -0.18190   0.97977   1.00
H1       0.49487    -0.17918   0.97815   1.00
C3a      0.64842    -0.19053   0.98391   1.00
H1       0.68762    -0.19379   0.98505   1.00
C3b      0.58333    -0.15616   0.96476   1.00
H1       0.57728    -0.13711   0.95301   1.00
C6       0.64080    -0.16139   0.96654   1.00
C6       0.69326    -0.13488   0.95038   1.00
C3c      0.69174    -0.17755   0.93511   1.00
H1       0.65486    -0.22160   0.93404   1.00
C3d      0.74418    -0.06687   0.95140   1.00
H1       0.74710    -0.03701   0.96155   1.00
C3       0.74339    -0.15198   0.92077   1.00
H1       0.74198    -0.18022   0.91028   1.00
C3       0.79687    -0.04458   0.93628   1.00
H1       0.83245    0.00022    0.93664   1.00
C2       0.79640    -0.08630   0.92155   1.00
C2       0.24685    0.45806    0.99676   1.00
C3       0.18630    0.40194    0.99843   1.00
H1       0.15992    0.39655    0.00984   1.00
C3       0.28388    0.46578    0.97977   1.00
H1       0.32595    0.50513    0.97815   1.00
C3a      0.16105    0.35158    0.98391   1.00
H1       0.11860    0.31238    0.98505   1.00
C3b      0.26051    0.41667    0.96476   1.00
H1       0.28561    0.42272    0.95301   1.00
C6       0.19781    0.35920    0.96654   1.00
C6       0.17186    0.30674    0.95038   1.00
C3c      0.13071    0.30826    0.93511   1.00
H1       0.12354    0.34514    0.93404   1.00
C3d      0.18895    0.25582    0.95140   1.00
H1       0.21589    0.25290    0.96155   1.00
C3       0.10463    0.25661    0.92077   1.00
H1       0.07780    0.25802    0.91028   1.00
C3       0.15855    0.20313    0.93628   1.00
H1       0.16777    0.16755    0.93664   1.00
C2       0.11730    0.20360    0.92155   1.00
C2       0.21121    0.75315    0.99676   1.00
C3       0.21564    0.81370    0.99843   1.00
H1       0.23663    0.84008    0.00984   1.00
C3       0.18190    0.71612    0.97977   1.00
H1       0.17918    0.67405    0.97815   1.00
C3a      0.19053    0.83895    0.98391   1.00
H1       0.19379    0.88140    0.98505   1.00
C3b      0.15616    0.73949    0.96476   1.00
H1       0.13711    0.71439    0.95301   1.00
C6       0.16139    0.80219    0.96654   1.00
C6       0.13488    0.82814    0.95038   1.00
C3c      0.17755    0.86929    0.93511   1.00
H1       0.22160    0.87646    0.93404   1.00
C3d      0.06687    0.81105    0.95140   1.00
H1       0.03701    0.78411    0.96155   1.00
C3       0.15198    0.89537    0.92077   1.00
H1       0.18022    0.92220    0.91028   1.00
C3       0.04458    0.84145    0.93628   1.00
H1       0.99978    0.83223    0.93664   1.00
C2       0.08630    0.88270    0.92155   1.00
C2       0.21121    0.45806    0.49676   1.00
C3       0.21564    0.40194    0.49843   1.00
H1       0.23663    0.39655    0.50984   1.00
C3       0.18190    0.46578    0.47977   1.00
H1       0.17918    0.50513    0.47815   1.00
C3a      0.19053    0.35158    0.48391   1.00
H1       0.19379    0.31238    0.48505   1.00
C3b      0.15616    0.41667    0.46476   1.00
H1       0.13711    0.42272    0.45301   1.00
C6       0.16139    0.35920    0.46654   1.00
C6       0.13488    0.30674    0.45038   1.00
C3c      0.17755    0.30826    0.43511   1.00
H1       0.22160    0.34514    0.43404   1.00
C3d      0.06687    0.25582    0.45140   1.00
H1       0.03701    0.25290    0.46155   1.00
C3       0.15198    0.25661    0.42077   1.00
H1       0.18022    0.25802    0.41028   1.00
C3       0.04458    0.20313    0.43628   1.00
H1       0.99978    0.16755    0.43664   1.00
C2       0.08630    0.20360    0.42155   1.00
C2       0.54194    0.75315    0.49676   1.00
C3       0.59806    0.81370    0.49843   1.00
H1       0.60345    0.84008    0.50984   1.00
C3       0.53422    0.71612    0.47977   1.00
H1       0.49487    0.67405    0.47815   1.00
C3a      0.64842    0.83895    0.48391   1.00
H1       0.68762    0.88140    0.48505   1.00
C3b      0.58333    0.73949    0.46476   1.00
H1       0.57728    0.71439    0.45301   1.00
C6       0.64080    0.80219    0.46654   1.00
C6       0.69326    0.82814    0.45038   1.00
C3c      0.69174    0.86929    0.43511   1.00
H1       0.65486    0.87646    0.43404   1.00
C3d      0.74418    0.81105    0.45140   1.00
H1       0.74710    0.78411    0.46155   1.00
C3       0.74339    0.89537    0.42077   1.00
H1       0.74198    0.92220    0.41028   1.00
C3       0.79687    0.84145    0.43628   1.00
H1       0.83245    0.83223    0.43664   1.00
C2       0.79640    0.88270    0.42155   1.00
C2       0.24685    -0.21121   0.49676   1.00
C3       0.18630    -0.21564   0.49843   1.00
H1       0.15992    -0.23663   0.50984   1.00
C3       0.28388    -0.18190   0.47977   1.00
H1       0.32595    -0.17918   0.47815   1.00
C3a      0.16105    -0.19053   0.48391   1.00
H1       0.11860    -0.19379   0.48505   1.00
C3b      0.26051    -0.15616   0.46476   1.00
H1       0.28561    -0.13711   0.45301   1.00
C6       0.19781    -0.16139   0.46654   1.00
C6       0.17186    -0.13488   0.45038   1.00
C3c      0.13071    -0.17755   0.43511   1.00
H1       0.12354    -0.22160   0.43404   1.00
C3d      0.18895    -0.06687   0.45140   1.00
H1       0.21589    -0.03701   0.46155   1.00
C3       0.10463    -0.15198   0.42077   1.00
H1       0.07780    -0.18022   0.41028   1.00
C3       0.15855    -0.04458   0.43628   1.00
H1       0.16777    0.00022    0.43664   1.00
C2       0.11730    -0.08630   0.42155   1.00
C2       0.45806    0.21121    0.00324   1.00
C3       0.40194    0.21564    0.00157   1.00
H1       0.39655    0.23663    0.99016   1.00
C3       0.46578    0.18190    0.02023   1.00
H1       0.50513    0.17918    0.02185   1.00
C3a      0.35158    0.19053    0.01609   1.00
H1       0.31238    0.19379    0.01495   1.00
C3b      0.41667    0.15616    0.03524   1.00
H1       0.42272    0.13711    0.04699   1.00
C6       0.35920    0.16139    0.03346   1.00
C6       0.30674    0.13488    0.04962   1.00
C3c      0.30826    0.17755    0.06489   1.00
H1       0.34514    0.22160    0.06596   1.00
C3d      0.25582    0.06687    0.04860   1.00
H1       0.25290    0.03701    0.03845   1.00
C3       0.25661    0.15198    0.07923   1.00
H1       0.25802    0.18022    0.08972   1.00
C3       0.20313    0.04458    0.06372   1.00
H1       0.16755    0.99978    0.06336   1.00
C2       0.20360    0.08630    0.07845   1.00
C2       0.75315    0.54194    0.00324   1.00
C3       0.81370    0.59806    0.00157   1.00
H1       0.84008    0.60345    0.99016   1.00
C3       0.71612    0.53422    0.02023   1.00
H1       0.67405    0.49487    0.02185   1.00
C3a      0.83895    0.64842    0.01609   1.00
H1       0.88140    0.68762    0.01495   1.00
C3b      0.73949    0.58333    0.03524   1.00
H1       0.71439    0.57728    0.04699   1.00
C6       0.80219    0.64080    0.03346   1.00
C6       0.82814    0.69326    0.04962   1.00
C3c      0.86929    0.69174    0.06489   1.00
H1       0.87646    0.65486    0.06596   1.00
C3d      0.81105    0.74418    0.04860   1.00
H1       0.78411    0.74710    0.03845   1.00
C3       0.89537    0.74339    0.07923   1.00
H1       0.92220    0.74198    0.08972   1.00
C3       0.84145    0.79687    0.06372   1.00
H1       0.83223    0.83245    0.06336   1.00
C2       0.88270    0.79640    0.07845   1.00
C2       -0.21121   0.24685    0.00324   1.00
C3       -0.21564   0.18630    0.00157   1.00
H1       -0.23663   0.15992    0.99016   1.00
C3       -0.18190   0.28388    0.02023   1.00
H1       -0.17918   0.32595    0.02185   1.00
C3a      -0.19053   0.16105    0.01609   1.00
H1       -0.19379   0.11860    0.01495   1.00
C3b      -0.15616   0.26051    0.03524   1.00
H1       -0.13711   0.28561    0.04699   1.00
C6       -0.16139   0.19781    0.03346   1.00
C6       -0.13488   0.17186    0.04962   1.00
C3c      -0.17755   0.13071    0.06489   1.00
H1       -0.22160   0.12354    0.06596   1.00
C3d      -0.06687   0.18895    0.04860   1.00
H1       -0.03701   0.21589    0.03845   1.00
C3       -0.15198   0.10463    0.07923   1.00
H1       -0.18022   0.07780    0.08972   1.00
C3       -0.04458   0.15855    0.06372   1.00
H1       0.00022    0.16777    0.06336   1.00
C2       -0.08630   0.11730    0.07845   1.00
C2       0.45546    0.87527    0.83657   1.00
C3       0.45103    0.93139    0.83490   1.00
H1       0.43004    0.93678    0.82349   1.00
C3       0.48477    0.86755    0.85356   1.00
H1       0.48749    0.82820    0.85518   1.00
C3a      0.47614    0.98175    0.84942   1.00
H1       0.47288    1.02095    0.84828   1.00
C3b      0.51051    0.91666    0.86857   1.00
H1       0.52956    0.91061    0.88032   1.00
C6       0.50528    0.97413    0.86679   1.00
C6       0.53179    0.02659    0.88295   1.00
C3c      0.48912    0.02507    0.89822   1.00
H1       0.44507    -0.01181   0.89929   1.00
C3d      0.59980    0.07751    0.88193   1.00
H1       0.62966    0.08043    0.87178   1.00
C3       0.51469    0.07672    0.91256   1.00
H1       0.48645    0.07531    0.92305   1.00
C3       0.62209    0.13020    0.89705   1.00
H1       0.66689    0.16578    0.89669   1.00
C2       0.58037    0.12973    0.91178   1.00
C2       0.12473    0.58018    0.83657   1.00
C3       0.06861    0.51963    0.83490   1.00
H1       0.06322    0.49325    0.82349   1.00
C3       0.13245    0.61721    0.85356   1.00
H1       0.17180    0.65928    0.85518   1.00
C3a      0.01825    0.49438    0.84942   1.00
H1       -0.02095   0.45193    0.84828   1.00
C3b      0.08334    0.59384    0.86857   1.00
H1       0.08939    0.61894    0.88032   1.00
C6       0.02587    0.53114    0.86679   1.00
C6       0.97341    0.50519    0.88295   1.00
C3c      0.97493    0.46404    0.89822   1.00
H1       1.01181    0.45687    0.89929   1.00
C3d      0.92249    0.52228    0.88193   1.00
H1       0.91957    0.54922    0.87178   1.00
C3       0.92328    0.43796    0.91256   1.00
H1       0.92469    0.41113    0.92305   1.00
C3       0.86980    0.49188    0.89705   1.00
H1       0.83422    0.50110    0.89669   1.00
C2       0.87027    0.45063    0.91178   1.00
C2       0.41982    0.54454    0.83657   1.00
C3       0.48037    0.54897    0.83490   1.00
H1       0.50675    0.56996    0.82349   1.00
C3       0.38279    0.51523    0.85356   1.00
H1       0.34072    0.51251    0.85518   1.00
C3a      0.50562    0.52386    0.84942   1.00
H1       0.54807    0.52712    0.84828   1.00
C3b      0.40616    0.48949    0.86857   1.00
H1       0.38106    0.47044    0.88032   1.00
C6       0.46886    0.49472    0.86679   1.00
C6       0.49481    0.46821    0.88295   1.00
C3c      0.53596    0.51088    0.89822   1.00
H1       0.54313    0.55493    0.89929   1.00
C3d      0.47772    0.40020    0.88193   1.00
H1       0.45078    0.37034    0.87178   1.00
C3       0.56204    0.48531    0.91256   1.00
H1       0.58887    0.51355    0.92305   1.00
C3       0.50812    0.37791    0.89705   1.00
H1       0.49890    0.33311    0.89669   1.00
C2       0.54937    0.41963    0.91178   1.00
C2       0.20861    0.12212    0.33009   1.00
C3       0.26473    0.11769    0.33176   1.00
H1       0.27012    0.09670    0.34317   1.00
C3       0.20089    0.15143    0.31310   1.00
H1       0.16154    0.15415    0.31148   1.00
C3a      0.31509    0.14280    0.31724   1.00
H1       0.35429    0.13954    0.31838   1.00
C3b      0.25000    0.17717    0.29809   1.00
H1       0.24395    0.19622    0.28634   1.00
C6       0.30747    0.17194    0.29987   1.00
C6       0.35993    0.19845    0.28371   1.00
C3c      0.35841    0.15578    0.26844   1.00
H1       0.32153    0.11173    0.26737   1.00
C3d      0.41085    0.26646    0.28473   1.00
H1       0.41377    0.29632    0.29488   1.00
C3       0.41006    0.18135    0.25410   1.00
H1       0.40865    0.15311    0.24361   1.00
C3       0.46354    0.28875    0.26961   1.00
H1       0.49912    0.33355    0.26997   1.00
C2       0.46307    0.24703    0.25488   1.00
C2       0.91352    0.79139    0.33009   1.00
C3       0.85297    0.73527    0.33176   1.00
H1       0.82659    0.72988    0.34317   1.00
C3       0.95055    0.79911    0.31310   1.00
H1       0.99262    0.83846    0.31148   1.00
C3a      0.82772    0.68491    0.31724   1.00
H1       0.78527    0.64571    0.31838   1.00
C3b      0.92718    0.75000    0.29809   1.00
H1       0.95228    0.75605    0.28634   1.00
C6       0.86448    0.69253    0.29987   1.00
C6       0.83853    0.64007    0.28371   1.00
C3c      0.79738    0.64159    0.26844   1.00
H1       0.79021    0.67847    0.26737   1.00
C3d      0.85562    0.58915    0.28473   1.00
H1       0.88256    0.58623    0.29488   1.00
C3       0.77130    0.58994    0.25410   1.00
H1       0.74447    0.59135    0.24361   1.00
C3       0.82522    0.53646    0.26961   1.00
H1       0.83444    0.50088    0.26997   1.00
C2       0.78397    0.53693    0.25488   1.00
C2       0.87788    0.08648    0.33009   1.00
C3       0.88231    0.14703    0.33176   1.00
H1       0.90330    0.17341    0.34317   1.00
C3       0.84857    0.04945    0.31310   1.00
H1       0.84585    0.00738    0.31148   1.00
C3a      0.85720    0.17228    0.31724   1.00
H1       0.86046    0.21473    0.31838   1.00
C3b      0.82283    0.07282    0.29809   1.00
H1       0.80378    0.04772    0.28634   1.00
C6       0.82806    0.13552    0.29987   1.00
C6       0.80155    0.16147    0.28371   1.00
C3c      0.84422    0.20262    0.26844   1.00
H1       0.88827    0.20979    0.26737   1.00
C3d      0.73354    0.14438    0.28473   1.00
H1       0.70368    0.11744    0.29488   1.00
C3       0.81865    0.22870    0.25410   1.00
H1       0.84689    0.25553    0.24361   1.00
C3       0.71125    0.17478    0.26961   1.00
H1       0.66645    0.16556    0.26997   1.00
C2       0.75297    0.21603    0.25488   1.00
C2       0.87788    0.79139    0.83009   1.00
C3       0.88231    0.73527    0.83176   1.00
H1       0.90330    0.72988    0.84317   1.00
C3       0.84857    0.79911    0.81310   1.00
H1       0.84585    0.83846    0.81148   1.00
C3a      0.85720    0.68491    0.81724   1.00
H1       0.86046    0.64571    0.81838   1.00
C3b      0.82283    0.75000    0.79809   1.00
H1       0.80378    0.75605    0.78634   1.00
C6       0.82806    0.69253    0.79987   1.00
C6       0.80155    0.64007    0.78371   1.00
C3c      0.84422    0.64159    0.76844   1.00
H1       0.88827    0.67847    0.76737   1.00
C3d      0.73354    0.58915    0.78473   1.00
H1       0.70368    0.58623    0.79488   1.00
C3       0.81865    0.58994    0.75410   1.00
H1       0.84689    0.59135    0.74361   1.00
C3       0.71125    0.53646    0.76961   1.00
H1       0.66645    0.50088    0.76997   1.00
C2       0.75297    0.53693    0.75488   1.00
C2       0.20861    0.08648    0.83009   1.00
C3       0.26473    0.14703    0.83176   1.00
H1       0.27012    0.17341    0.84317   1.00
C3       0.20089    0.04945    0.81310   1.00
H1       0.16154    0.00738    0.81148   1.00
C3a      0.31509    0.17228    0.81724   1.00
H1       0.35429    0.21473    0.81838   1.00
C3b      0.25000    0.07282    0.79809   1.00
H1       0.24395    0.04772    0.78634   1.00
C6       0.30747    0.13552    0.79987   1.00
C6       0.35993    0.16147    0.78371   1.00
C3c      0.35841    0.20262    0.76844   1.00
H1       0.32153    0.20979    0.76737   1.00
C3d      0.41085    0.14438    0.78473   1.00
H1       0.41377    0.11744    0.79488   1.00
C3       0.41006    0.22870    0.75410   1.00
H1       0.40865    0.25553    0.74361   1.00
C3       0.46354    0.17478    0.76961   1.00
H1       0.49912    0.16556    0.76997   1.00
C2       0.46307    0.21603    0.75488   1.00
C2       0.91352    0.12212    0.83009   1.00
C3       0.85297    0.11769    0.83176   1.00
H1       0.82659    0.09670    0.84317   1.00
C3       0.95055    0.15143    0.81310   1.00
H1       0.99262    0.15415    0.81148   1.00
C3a      0.82772    0.14280    0.81724   1.00
H1       0.78527    0.13954    0.81838   1.00
C3b      0.92718    0.17717    0.79809   1.00
H1       0.95228    0.19622    0.78634   1.00
C6       0.86448    0.17194    0.79987   1.00
C6       0.83853    0.19845    0.78371   1.00
C3c      0.79738    0.15578    0.76844   1.00
H1       0.79021    0.11173    0.76737   1.00
C3d      0.85562    0.26646    0.78473   1.00
H1       0.88256    0.29632    0.79488   1.00
C3       0.77130    0.18135    0.75410   1.00
H1       0.74447    0.15311    0.74361   1.00
C3       0.82522    0.28875    0.76961   1.00
H1       0.83444    0.33355    0.76997   1.00
C2       0.78397    0.24703    0.75488   1.00
C2       0.12473    0.54454    0.33657   1.00
C3       0.06861    0.54897    0.33490   1.00
H1       0.06322    0.56996    0.32349   1.00
C3       0.13245    0.51523    0.35356   1.00
H1       0.17180    0.51251    0.35518   1.00
C3a      0.01825    0.52386    0.34942   1.00
H1       -0.02095   0.52712    0.34828   1.00
C3b      0.08334    0.48949    0.36857   1.00
H1       0.08939    0.47044    0.38032   1.00
C6       0.02587    0.49472    0.36679   1.00
C6       0.97341    0.46821    0.38295   1.00
C3c      0.97493    0.51088    0.39822   1.00
H1       1.01181    0.55493    0.39929   1.00
C3d      0.92249    0.40020    0.38193   1.00
H1       0.91957    0.37034    0.37178   1.00
C3       0.92328    0.48531    0.41256   1.00
H1       0.92469    0.51355    0.42305   1.00
C3       0.86980    0.37791    0.39705   1.00
H1       0.83422    0.33311    0.39669   1.00
C2       0.87027    0.41963    0.41178   1.00
C2       0.41982    0.87527    0.33657   1.00
C3       0.48037    0.93139    0.33490   1.00
H1       0.50675    0.93678    0.32349   1.00
C3       0.38279    0.86755    0.35356   1.00
H1       0.34072    0.82820    0.35518   1.00
C3a      0.50562    0.98175    0.34942   1.00
H1       0.54807    1.02095    0.34828   1.00
C3b      0.40616    0.91666    0.36857   1.00
H1       0.38106    0.91061    0.38032   1.00
C6       0.46886    0.97413    0.36679   1.00
C6       0.49481    0.02659    0.38295   1.00
C3c      0.53596    0.02507    0.39822   1.00
H1       0.54313    -0.01181   0.39929   1.00
C3d      0.47772    0.07751    0.38193   1.00
H1       0.45078    0.08043    0.37178   1.00
C3       0.56204    0.07672    0.41256   1.00
H1       0.58887    0.07531    0.42305   1.00
C3       0.50812    0.13020    0.39705   1.00
H1       0.49890    0.16578    0.39669   1.00
C2       0.54937    0.12973    0.41178   1.00
C2       0.45546    0.58018    0.33657   1.00
C3       0.45103    0.51963    0.33490   1.00
H1       0.43004    0.49325    0.32349   1.00
C3       0.48477    0.61721    0.35356   1.00
H1       0.48749    0.65928    0.35518   1.00
C3a      0.47614    0.49438    0.34942   1.00
H1       0.47288    0.45193    0.34828   1.00
C3b      0.51051    0.59384    0.36857   1.00
H1       0.52956    0.61894    0.38032   1.00
C6       0.50528    0.53114    0.36679   1.00
C6       0.53179    0.50519    0.38295   1.00
C3c      0.48912    0.46404    0.39822   1.00
H1       0.44507    0.45687    0.39929   1.00
C3d      0.59980    0.52228    0.38193   1.00
H1       0.62966    0.54922    0.37178   1.00
C3       0.51469    0.43796    0.41256   1.00
H1       0.48645    0.41113    0.42305   1.00
C3       0.62209    0.49188    0.39705   1.00
H1       0.66689    0.50110    0.39669   1.00
C2       0.58037    0.45063    0.41178   1.00
C2       0.12212    0.20861    0.16991   1.00
C3       0.11769    0.26473    0.16824   1.00
H1       0.09670    0.27012    0.15683   1.00
C3       0.15143    0.20089    0.18690   1.00
H1       0.15415    0.16154    0.18852   1.00
C3a      0.14280    0.31509    0.18276   1.00
H1       0.13954    0.35429    0.18162   1.00
C3b      0.17717    0.25000    0.20191   1.00
H1       0.19622    0.24395    0.21366   1.00
C6       0.17194    0.30747    0.20013   1.00
C6       0.19845    0.35993    0.21629   1.00
C3c      0.15578    0.35841    0.23156   1.00
H1       0.11173    0.32153    0.23263   1.00
C3d      0.26646    0.41085    0.21527   1.00
H1       0.29632    0.41377    0.20512   1.00
C3       0.18135    0.41006    0.24590   1.00
H1       0.15311    0.40865    0.25639   1.00
C3       0.28875    0.46354    0.23039   1.00
H1       0.33355    0.49912    0.23003   1.00
C2       0.24703    0.46307    0.24512   1.00
C2       0.79139    0.91352    0.16991   1.00
C3       0.73527    0.85297    0.16824   1.00
H1       0.72988    0.82659    0.15683   1.00
C3       0.79911    0.95055    0.18690   1.00
H1       0.83846    0.99262    0.18852   1.00
C3a      0.68491    0.82772    0.18276   1.00
H1       0.64571    0.78527    0.18162   1.00
C3b      0.75000    0.92718    0.20191   1.00
H1       0.75605    0.95228    0.21366   1.00
C6       0.69253    0.86448    0.20013   1.00
C6       0.64007    0.83853    0.21629   1.00
C3c      0.64159    0.79738    0.23156   1.00
H1       0.67847    0.79021    0.23263   1.00
C3d      0.58915    0.85562    0.21527   1.00
H1       0.58623    0.88256    0.20512   1.00
C3       0.58994    0.77130    0.24590   1.00
H1       0.59135    0.74447    0.25639   1.00
C3       0.53646    0.82522    0.23039   1.00
H1       0.50088    0.83444    0.23003   1.00
C2       0.53693    0.78397    0.24512   1.00
C2       0.08648    0.87788    0.16991   1.00
C3       0.14703    0.88231    0.16824   1.00
H1       0.17341    0.90330    0.15683   1.00
C3       0.04945    0.84857    0.18690   1.00
H1       0.00738    0.84585    0.18852   1.00
C3a      0.17228    0.85720    0.18276   1.00
H1       0.21473    0.86046    0.18162   1.00
C3b      0.07282    0.82283    0.20191   1.00
H1       0.04772    0.80378    0.21366   1.00
C6       0.13552    0.82806    0.20013   1.00
C6       0.16147    0.80155    0.21629   1.00
C3c      0.20262    0.84422    0.23156   1.00
H1       0.20979    0.88827    0.23263   1.00
C3d      0.14438    0.73354    0.21527   1.00
H1       0.11744    0.70368    0.20512   1.00
C3       0.22870    0.81865    0.24590   1.00
H1       0.25553    0.84689    0.25639   1.00
C3       0.17478    0.71125    0.23039   1.00
H1       0.16556    0.66645    0.23003   1.00
C2       0.21603    0.75297    0.24512   1.00
C2       0.87527    0.45546    0.66343   1.00
C3       0.93139    0.45103    0.66510   1.00
H1       0.93678    0.43004    0.67651   1.00
C3       0.86755    0.48477    0.64644   1.00
H1       0.82820    0.48749    0.64482   1.00
C3a      0.98175    0.47614    0.65058   1.00
H1       1.02095    0.47288    0.65172   1.00
C3b      0.91666    0.51051    0.63143   1.00
H1       0.91061    0.52956    0.61968   1.00
C6       0.97413    0.50528    0.63321   1.00
C6       0.02659    0.53179    0.61705   1.00
C3c      0.02507    0.48912    0.60178   1.00
H1       -0.01181   0.44507    0.60071   1.00
C3d      0.07751    0.59980    0.61807   1.00
H1       0.08043    0.62966    0.62822   1.00
C3       0.07672    0.51469    0.58744   1.00
H1       0.07531    0.48645    0.57695   1.00
C3       0.13020    0.62209    0.60295   1.00
H1       0.16578    0.66689    0.60331   1.00
C2       0.12973    0.58037    0.58822   1.00
C2       0.58018    0.12473    0.66343   1.00
C3       0.51963    0.06861    0.66510   1.00
H1       0.49325    0.06322    0.67651   1.00
C3       0.61721    0.13245    0.64644   1.00
H1       0.65928    0.17180    0.64482   1.00
C3a      0.49438    0.01825    0.65058   1.00
H1       0.45193    -0.02095   0.65172   1.00
C3b      0.59384    0.08334    0.63143   1.00
H1       0.61894    0.08939    0.61968   1.00
C6       0.53114    0.02587    0.63321   1.00
C6       0.50519    0.97341    0.61705   1.00
C3c      0.46404    0.97493    0.60178   1.00
H1       0.45687    1.01181    0.60071   1.00
C3d      0.52228    0.92249    0.61807   1.00
H1       0.54922    0.91957    0.62822   1.00
C3       0.43796    0.92328    0.58744   1.00
H1       0.41113    0.92469    0.57695   1.00
C3       0.49188    0.86980    0.60295   1.00
H1       0.50110    0.83422    0.60331   1.00
C2       0.45063    0.87027    0.58822   1.00
C2       0.54454    0.41982    0.66343   1.00
C3       0.54897    0.48037    0.66510   1.00
H1       0.56996    0.50675    0.67651   1.00
C3       0.51523    0.38279    0.64644   1.00
H1       0.51251    0.34072    0.64482   1.00
C3a      0.52386    0.50562    0.65058   1.00
H1       0.52712    0.54807    0.65172   1.00
C3b      0.48949    0.40616    0.63143   1.00
H1       0.47044    0.38106    0.61968   1.00
C6       0.49472    0.46886    0.63321   1.00
C6       0.46821    0.49481    0.61705   1.00
C3c      0.51088    0.53596    0.60178   1.00
H1       0.55493    0.54313    0.60071   1.00
C3d      0.40020    0.47772    0.61807   1.00
H1       0.37034    0.45078    0.62822   1.00
C3       0.48531    0.56204    0.58744   1.00
H1       0.51355    0.58887    0.57695   1.00
C3       0.37791    0.50812    0.60295   1.00
H1       0.33311    0.49890    0.60331   1.00
C2       0.41963    0.54937    0.58822   1.00
C2       0.54454    0.12473    0.16343   1.00
C3       0.54897    0.06861    0.16510   1.00
H1       0.56996    0.06322    0.17651   1.00
C3       0.51523    0.13245    0.14644   1.00
H1       0.51251    0.17180    0.14482   1.00
C3a      0.52386    0.01825    0.15058   1.00
H1       0.52712    -0.02095   0.15172   1.00
C3b      0.48949    0.08334    0.13143   1.00
H1       0.47044    0.08939    0.11968   1.00
C6       0.49472    0.02587    0.13321   1.00
C6       0.46821    0.97341    0.11705   1.00
C3c      0.51088    0.97493    0.10178   1.00
H1       0.55493    1.01181    0.10071   1.00
C3d      0.40020    0.92249    0.11807   1.00
H1       0.37034    0.91957    0.12822   1.00
C3       0.48531    0.92328    0.08744   1.00
H1       0.51355    0.92469    0.07695   1.00
C3       0.37791    0.86980    0.10295   1.00
H1       0.33311    0.83422    0.10331   1.00
C2       0.41963    0.87027    0.08822   1.00
C2       0.87527    0.41982    0.16343   1.00
C3       0.93139    0.48037    0.16510   1.00
H1       0.93678    0.50675    0.17651   1.00
C3       0.86755    0.38279    0.14644   1.00
H1       0.82820    0.34072    0.14482   1.00
C3a      0.98175    0.50562    0.15058   1.00
H1       1.02095    0.54807    0.15172   1.00
C3b      0.91666    0.40616    0.13143   1.00
H1       0.91061    0.38106    0.11968   1.00
C6       0.97413    0.46886    0.13321   1.00
C6       0.02659    0.49481    0.11705   1.00
C3c      0.02507    0.53596    0.10178   1.00
H1       -0.01181   0.54313    0.10071   1.00
C3d      0.07751    0.47772    0.11807   1.00
H1       0.08043    0.45078    0.12822   1.00
C3       0.07672    0.56204    0.08744   1.00
H1       0.07531    0.58887    0.07695   1.00
C3       0.13020    0.50812    0.10295   1.00
H1       0.16578    0.49890    0.10331   1.00
C2       0.12973    0.54937    0.08822   1.00
C2       0.58018    0.45546    0.16343   1.00
C3       0.51963    0.45103    0.16510   1.00
H1       0.49325    0.43004    0.17651   1.00
C3       0.61721    0.48477    0.14644   1.00
H1       0.65928    0.48749    0.14482   1.00
C3a      0.49438    0.47614    0.15058   1.00
H1       0.45193    0.47288    0.15172   1.00
C3b      0.59384    0.51051    0.13143   1.00
H1       0.61894    0.52956    0.11968   1.00
C6       0.53114    0.50528    0.13321   1.00
C6       0.50519    0.53179    0.11705   1.00
C3c      0.46404    0.48912    0.10178   1.00
H1       0.45687    0.44507    0.10071   1.00
C3d      0.52228    0.59980    0.11807   1.00
H1       0.54922    0.62966    0.12822   1.00
C3       0.43796    0.51469    0.08744   1.00
H1       0.41113    0.48645    0.07695   1.00
C3       0.49188    0.62209    0.10295   1.00
H1       0.50110    0.66689    0.10331   1.00
C2       0.45063    0.58037    0.08822   1.00
C2       0.79139    0.87788    0.66991   1.00
C3       0.73527    0.88231    0.66824   1.00
H1       0.72988    0.90330    0.65683   1.00
C3       0.79911    0.84857    0.68690   1.00
H1       0.83846    0.84585    0.68852   1.00
C3a      0.68491    0.85720    0.68276   1.00
H1       0.64571    0.86046    0.68162   1.00
C3b      0.75000    0.82283    0.70191   1.00
H1       0.75605    0.80378    0.71366   1.00
C6       0.69253    0.82806    0.70013   1.00
C6       0.64007    0.80155    0.71629   1.00
C3c      0.64159    0.84422    0.73156   1.00
H1       0.67847    0.88827    0.73263   1.00
C3d      0.58915    0.73354    0.71527   1.00
H1       0.58623    0.70368    0.70512   1.00
C3       0.58994    0.81865    0.74590   1.00
H1       0.59135    0.84689    0.75639   1.00
C3       0.53646    0.71125    0.73039   1.00
H1       0.50088    0.66645    0.73003   1.00
C2       0.53693    0.75297    0.74512   1.00
C2       0.08648    0.20861    0.66991   1.00
C3       0.14703    0.26473    0.66824   1.00
H1       0.17341    0.27012    0.65683   1.00
C3       0.04945    0.20089    0.68690   1.00
H1       0.00738    0.16154    0.68852   1.00
C3a      0.17228    0.31509    0.68276   1.00
H1       0.21473    0.35429    0.68162   1.00
C3b      0.07282    0.25000    0.70191   1.00
H1       0.04772    0.24395    0.71366   1.00
C6       0.13552    0.30747    0.70013   1.00
C6       0.16147    0.35993    0.71629   1.00
C3c      0.20262    0.35841    0.73156   1.00
H1       0.20979    0.32153    0.73263   1.00
C3d      0.14438    0.41085    0.71527   1.00
H1       0.11744    0.41377    0.70512   1.00
C3       0.22870    0.41006    0.74590   1.00
H1       0.25553    0.40865    0.75639   1.00
C3       0.17478    0.46354    0.73039   1.00
H1       0.16556    0.49912    0.73003   1.00
C2       0.21603    0.46307    0.74512   1.00
C2       0.12212    0.91352    0.66991   1.00
C3       0.11769    0.85297    0.66824   1.00
H1       0.09670    0.82659    0.65683   1.00
C3       0.15143    0.95055    0.68690   1.00
H1       0.15415    0.99262    0.68852   1.00
C3a      0.14280    0.82772    0.68276   1.00
H1       0.13954    0.78527    0.68162   1.00
C3b      0.17717    0.92718    0.70191   1.00
H1       0.19622    0.95228    0.71366   1.00
C6       0.17194    0.86448    0.70013   1.00
C6       0.19845    0.83853    0.71629   1.00
C3c      0.15578    0.79738    0.73156   1.00
H1       0.11173    0.79021    0.73263   1.00
C3d      0.26646    0.85562    0.71527   1.00
H1       0.29632    0.88256    0.70512   1.00
C3       0.18135    0.77130    0.74590   1.00
H1       0.15311    0.74447    0.75639   1.00
C3       0.28875    0.82522    0.73039   1.00
H1       0.33355    0.83444    0.73003   1.00
C2       0.24703    0.78397    0.74512   1.00
