data_IRMOF10_interpen_symm_ligand11lp_label_b_1.

_audit_creation_method             'generated by an auxiliary program of Tobunporous'

_symmetry_space_group_name_H-M     'P 1'
_symmetry_Int_Tables_number        1
_symmetry_cell_setting             triclinic

_cell_length_a                    22.6523
_cell_length_b                    22.6523
_cell_length_c                    65.9502
_cell_angle_alpha                 90.0000
_cell_angle_beta                  90.0000
_cell_angle_gamma                 120.0000

loop_
_atom_site_label
_atom_site_fract_x
_atom_site_fract_y
_atom_site_fract_z
_atom_site_occupancy
O1       0.00000    -0.00000   0.62500   1.00
Zn1      0.00000    -0.00000   0.59589   1.00
Zn1      0.94848    1.04288    0.63392   1.00
Zn1      0.09439    0.05152    0.63392   1.00
Zn1      -0.04288   0.90561    0.63392   1.00
O2       0.93860    0.02610    0.58587   1.00
O2       0.08750    0.06140    0.58587   1.00
O2       -0.02610   0.91250    0.58587   1.00
O2       0.91305    0.07161    0.61181   1.00
O2       0.00462    0.12022    0.65110   1.00
O2       0.87413    0.98074    0.65071   1.00
O2       0.15856    0.08695    0.61181   1.00
O2       0.10660    0.12587    0.65071   1.00
O2       0.11559    0.99538    0.65110   1.00
O2       -0.07161   0.84144    0.61181   1.00
O2       0.87978    0.88441    0.65110   1.00
O2       0.01926    0.89340    0.65071   1.00
C1       0.91390    0.06020    0.59358   1.00
C1       0.14630    0.08610    0.59358   1.00
C1       -0.06020   0.85370    0.59358   1.00
C1       0.06663    0.14397    0.65673   1.00
C1       0.85603    0.92267    0.65673   1.00
C1       0.07733    0.93337    0.65673   1.00
O1       -0.00000   0.00000    0.87500   1.00
Zn1      -0.00000   0.00000    0.90411   1.00
Zn1      1.04288    0.94848    0.86608   1.00
Zn1      0.05152    0.09439    0.86608   1.00
Zn1      0.90561    -0.04288   0.86608   1.00
O2       0.02610    0.93860    0.91413   1.00
O2       0.06140    0.08750    0.91413   1.00
O2       0.91250    -0.02610   0.91413   1.00
O2       0.07161    0.91305    0.88819   1.00
O2       0.12022    0.00462    0.84890   1.00
O2       0.98074    0.87413    0.84929   1.00
O2       0.08695    0.15856    0.88819   1.00
O2       0.12587    0.10660    0.84929   1.00
O2       0.99538    0.11559    0.84890   1.00
O2       0.84144    -0.07161   0.88819   1.00
O2       0.88441    0.87978    0.84890   1.00
O2       0.89340    0.01926    0.84929   1.00
C1       0.06020    0.91390    0.90642   1.00
C1       0.08610    0.14630    0.90642   1.00
C1       0.85370    -0.06020   0.90642   1.00
C1       0.14397    0.06663    0.84327   1.00
C1       0.92267    0.85603    0.84327   1.00
C1       0.93337    0.07733    0.84327   1.00
O1       0.00000    0.00000    0.37500   1.00
Zn1      0.00000    0.00000    0.40411   1.00
Zn1      0.05152    -0.04288   0.36608   1.00
Zn1      0.90561    0.94848    0.36608   1.00
Zn1      1.04288    0.09439    0.36608   1.00
O2       0.06140    -0.02610   0.41413   1.00
O2       0.91250    0.93860    0.41413   1.00
O2       0.02610    0.08750    0.41413   1.00
O2       0.08695    -0.07161   0.38819   1.00
O2       0.99538    0.87978    0.34890   1.00
O2       0.12587    0.01926    0.34929   1.00
O2       0.84144    0.91305    0.38819   1.00
O2       0.89340    0.87413    0.34929   1.00
O2       0.88441    0.00462    0.34890   1.00
O2       0.07161    0.15856    0.38819   1.00
O2       0.12022    0.11559    0.34890   1.00
O2       0.98074    0.10660    0.34929   1.00
C1       0.08610    -0.06020   0.40642   1.00
C1       0.85370    0.91390    0.40642   1.00
C1       0.06020    0.14630    0.40642   1.00
C1       0.93337    0.85603    0.34327   1.00
C1       0.14397    0.07733    0.34327   1.00
C1       0.92267    0.06663    0.34327   1.00
O1       0.00000    0.00000    0.12500   1.00
Zn1      0.00000    0.00000    0.09589   1.00
Zn1      -0.04288   0.05152    0.13392   1.00
Zn1      0.94848    0.90561    0.13392   1.00
Zn1      0.09439    1.04288    0.13392   1.00
O2       -0.02610   0.06140    0.08587   1.00
O2       0.93860    0.91250    0.08587   1.00
O2       0.08750    0.02610    0.08587   1.00
O2       -0.07161   0.08695    0.11181   1.00
O2       0.87978    0.99538    0.15110   1.00
O2       0.01926    0.12587    0.15071   1.00
O2       0.91305    0.84144    0.11181   1.00
O2       0.87413    0.89340    0.15071   1.00
O2       0.00462    0.88441    0.15110   1.00
O2       0.15856    0.07161    0.11181   1.00
O2       0.11559    0.12022    0.15110   1.00
O2       0.10660    0.98074    0.15071   1.00
C1       -0.06020   0.08610    0.09358   1.00
C1       0.91390    0.85370    0.09358   1.00
C1       0.14630    0.06020    0.09358   1.00
C1       0.85603    0.93337    0.15673   1.00
C1       0.07733    0.14397    0.15673   1.00
C1       0.06663    0.92267    0.15673   1.00
O1       0.66667    0.33333    0.95833   1.00
Zn1      0.66667    0.33333    0.92922   1.00
Zn1      0.61515    0.37621    0.96725   1.00
Zn1      0.76106    0.38485    0.96725   1.00
Zn1      -0.37621   0.23894    0.96725   1.00
O2       0.60527    0.35943    0.91920   1.00
O2       0.75417    0.39473    0.91920   1.00
O2       0.64057    0.24583    0.91920   1.00
O2       0.57972    0.40494    0.94514   1.00
O2       0.67129    0.45355    0.98443   1.00
O2       0.54080    0.31407    0.98404   1.00
O2       0.82523    0.42028    0.94514   1.00
O2       0.77327    0.45920    0.98404   1.00
O2       -0.21774   0.32871    0.98443   1.00
O2       0.59506    0.17477    0.94514   1.00
O2       0.54645    0.21774    0.98443   1.00
O2       -0.31407   0.22673    0.98404   1.00
C1       0.58057    0.39353    0.92691   1.00
C1       0.81297    0.41943    0.92691   1.00
C1       0.60647    0.18703    0.92691   1.00
C1       0.73330    0.47730    0.99006   1.00
C1       0.52270    0.25600    0.99006   1.00
C1       -0.25600   0.26670    0.99006   1.00
O1       0.66667    0.33333    0.20833   1.00
Zn1      0.66667    0.33333    0.23744   1.00
Zn1      0.70954    0.28182    0.19942   1.00
Zn1      0.71818    0.42773    0.19942   1.00
Zn1      0.57227    0.29046    0.19942   1.00
O2       0.69277    0.27193    0.24746   1.00
O2       0.72807    0.42083    0.24746   1.00
O2       0.57917    0.30723    0.24746   1.00
O2       0.73828    0.24638    0.22152   1.00
O2       0.78688    0.33796    0.18224   1.00
O2       0.64740    0.20747    0.18263   1.00
O2       0.75362    0.49189    0.22152   1.00
O2       0.79253    0.43994    0.18263   1.00
O2       0.66204    0.44893    0.18224   1.00
O2       0.50811    0.26172    0.22152   1.00
O2       0.55107    0.21312    0.18224   1.00
O2       0.56006    0.35260    0.18263   1.00
C1       0.72687    0.24723    0.23975   1.00
C1       0.75277    0.47963    0.23975   1.00
C1       0.52037    0.27313    0.23975   1.00
C1       0.81063    0.39997    0.17661   1.00
C1       0.58933    0.18937    0.17661   1.00
C1       0.60003    0.41067    0.17661   1.00
O1       0.66667    0.33333    0.70833   1.00
Zn1      0.66667    0.33333    0.73744   1.00
Zn1      0.71818    0.29046    0.69942   1.00
Zn1      0.57227    0.28182    0.69942   1.00
Zn1      0.70954    0.42773    0.69942   1.00
O2       0.72807    0.30723    0.74746   1.00
O2       0.57917    0.27193    0.74746   1.00
O2       0.69277    0.42083    0.74746   1.00
O2       0.75362    0.26172    0.72152   1.00
O2       0.66204    0.21312    0.68224   1.00
O2       0.79253    0.35260    0.68263   1.00
O2       0.50811    0.24638    0.72152   1.00
O2       0.56006    0.20747    0.68263   1.00
O2       0.55107    0.33796    0.68224   1.00
O2       0.73828    0.49189    0.72152   1.00
O2       0.78688    0.44893    0.68224   1.00
O2       0.64740    0.43994    0.68263   1.00
C1       0.75277    0.27313    0.73975   1.00
C1       0.52037    0.24723    0.73975   1.00
C1       0.72687    0.47963    0.73975   1.00
C1       0.60003    0.18937    0.67661   1.00
C1       0.81063    0.41067    0.67661   1.00
C1       0.58933    0.39997    0.67661   1.00
O1       0.66667    0.33333    0.45833   1.00
Zn1      0.66667    0.33333    0.42922   1.00
Zn1      -0.37621   0.38485    0.46725   1.00
Zn1      0.61515    0.23894    0.46725   1.00
Zn1      0.76106    0.37621    0.46725   1.00
O2       0.64057    0.39473    0.41920   1.00
O2       0.60527    0.24583    0.41920   1.00
O2       0.75417    0.35943    0.41920   1.00
O2       0.59506    0.42028    0.44514   1.00
O2       0.54645    0.32871    0.48443   1.00
O2       -0.31407   0.45920    0.48404   1.00
O2       0.57972    0.17477    0.44514   1.00
O2       0.54080    0.22673    0.48404   1.00
O2       0.67129    0.21774    0.48443   1.00
O2       0.82523    0.40494    0.44514   1.00
O2       -0.21774   0.45355    0.48443   1.00
O2       0.77327    0.31407    0.48404   1.00
C1       0.60647    0.41943    0.42691   1.00
C1       0.58057    0.18703    0.42691   1.00
C1       0.81297    0.39353    0.42691   1.00
C1       0.52270    0.26670    0.49006   1.00
C1       -0.25600   0.47730    0.49006   1.00
C1       0.73330    0.25600    0.49006   1.00
O1       0.33333    0.66667    0.29167   1.00
Zn1      0.33333    0.66667    0.26256   1.00
Zn1      0.28182    0.70954    0.30058   1.00
Zn1      0.42773    0.71818    0.30058   1.00
Zn1      0.29046    0.57227    0.30058   1.00
O2       0.27193    0.69277    0.25254   1.00
O2       0.42083    0.72807    0.25254   1.00
O2       0.30723    0.57917    0.25254   1.00
O2       0.24638    0.73828    0.27848   1.00
O2       0.33796    0.78688    0.31776   1.00
O2       0.20747    0.64740    0.31737   1.00
O2       0.49189    0.75362    0.27848   1.00
O2       0.43994    0.79253    0.31737   1.00
O2       0.44893    0.66204    0.31776   1.00
O2       0.26172    0.50811    0.27848   1.00
O2       0.21312    0.55107    0.31776   1.00
O2       0.35260    0.56006    0.31737   1.00
C1       0.24723    0.72687    0.26025   1.00
C1       0.47963    0.75277    0.26025   1.00
C1       0.27313    0.52037    0.26025   1.00
C1       0.39997    0.81063    0.32339   1.00
C1       0.18937    0.58933    0.32339   1.00
C1       0.41067    0.60003    0.32339   1.00
O1       0.33333    0.66667    0.54167   1.00
Zn1      0.33333    0.66667    0.57078   1.00
Zn1      0.37621    0.61515    0.53275   1.00
Zn1      0.38485    0.76106    0.53275   1.00
Zn1      0.23894    -0.37621   0.53275   1.00
O2       0.35943    0.60527    0.58080   1.00
O2       0.39473    0.75417    0.58080   1.00
O2       0.24583    0.64057    0.58080   1.00
O2       0.40494    0.57972    0.55486   1.00
O2       0.45355    0.67129    0.51557   1.00
O2       0.31407    0.54080    0.51596   1.00
O2       0.42028    0.82523    0.55486   1.00
O2       0.45920    0.77327    0.51596   1.00
O2       0.32871    -0.21774   0.51557   1.00
O2       0.17477    0.59506    0.55486   1.00
O2       0.21774    0.54645    0.51557   1.00
O2       0.22673    -0.31407   0.51596   1.00
C1       0.39353    0.58057    0.57309   1.00
C1       0.41943    0.81297    0.57309   1.00
C1       0.18703    0.60647    0.57309   1.00
C1       0.47730    0.73330    0.50994   1.00
C1       0.25600    0.52270    0.50994   1.00
C1       0.26670    -0.25600   0.50994   1.00
O1       0.33333    0.66667    0.04167   1.00
Zn1      0.33333    0.66667    0.07078   1.00
Zn1      0.38485    -0.37621   0.03275   1.00
Zn1      0.23894    0.61515    0.03275   1.00
Zn1      0.37621    0.76106    0.03275   1.00
O2       0.39473    0.64057    0.08080   1.00
O2       0.24583    0.60527    0.08080   1.00
O2       0.35943    0.75417    0.08080   1.00
O2       0.42028    0.59506    0.05486   1.00
O2       0.32871    0.54645    0.01557   1.00
O2       0.45920    -0.31407   0.01596   1.00
O2       0.17477    0.57972    0.05486   1.00
O2       0.22673    0.54080    0.01596   1.00
O2       0.21774    0.67129    0.01557   1.00
O2       0.40494    0.82523    0.05486   1.00
O2       0.45355    -0.21774   0.01557   1.00
O2       0.31407    0.77327    0.01596   1.00
C1       0.41943    0.60647    0.07309   1.00
C1       0.18703    0.58057    0.07309   1.00
C1       0.39353    0.81297    0.07309   1.00
C1       0.26670    0.52270    0.00994   1.00
C1       0.47730    -0.25600   0.00994   1.00
C1       0.25600    0.73330    0.00994   1.00
O1       0.33333    0.66667    0.79167   1.00
Zn1      0.33333    0.66667    0.76256   1.00
Zn1      0.29046    0.71818    0.80058   1.00
Zn1      0.28182    0.57227    0.80058   1.00
Zn1      0.42773    0.70954    0.80058   1.00
O2       0.30723    0.72807    0.75254   1.00
O2       0.27193    0.57917    0.75254   1.00
O2       0.42083    0.69277    0.75254   1.00
O2       0.26172    0.75362    0.77848   1.00
O2       0.21312    0.66204    0.81776   1.00
O2       0.35260    0.79253    0.81737   1.00
O2       0.24638    0.50811    0.77848   1.00
O2       0.20747    0.56006    0.81737   1.00
O2       0.33796    0.55107    0.81776   1.00
O2       0.49189    0.73828    0.77848   1.00
O2       0.44893    0.78688    0.81776   1.00
O2       0.43994    0.64740    0.81737   1.00
C1       0.27313    0.75277    0.76025   1.00
C1       0.24723    0.52037    0.76025   1.00
C1       0.47963    0.72687    0.76025   1.00
C1       0.18937    0.60003    0.82339   1.00
C1       0.41067    0.81063    0.82339   1.00
C1       0.39997    0.58933    0.82339   1.00
C5       0.10202    0.94967    0.54611   1.00
H2       0.07471    0.97865    0.54791   1.00
H2       0.10851    0.94656    0.52952   1.00
C5       0.17235    0.98860    0.55669   1.00
H2       0.21019    1.03015    0.54678   1.00
H2       0.19124    0.95291    0.56030   1.00
O_3      -0.08933   0.59559    0.55144   1.00
C4       -0.14216   0.68475    0.55203   1.00
C3c      -0.08827   0.74865    0.54607   1.00
H1       -0.06748   0.75530    0.53094   1.00
C3d      -0.16916   0.67743    0.57172   1.00
C3       -0.05976   0.80449    0.55951   1.00
O2       -0.01295   0.86731    0.55186   1.00
C3       -0.14003   0.73257    0.58527   1.00
H1       -0.16085   0.72387    0.60044   1.00
C2       -0.08502   0.79735    0.57956   1.00
C5       -0.11287   0.54919    0.56781   1.00
H2       -0.13705   0.49517    0.56263   1.00
H2       -0.15083   0.55495    0.57713   1.00
C5       -0.05166   0.56459    0.58094   1.00
H2       -0.02636   0.61911    0.58564   1.00
H2       -0.01441   0.55806    0.57154   1.00
C5       -0.07315   0.51782    0.59957   1.00
H2       -0.09888   0.46328    0.59498   1.00
H2       -0.10851   0.52602    0.60933   1.00
H2       -0.02756   0.52882    0.60874   1.00
C5       -0.28375   0.60387    0.57373   1.00
C5       0.05381    0.87859    0.55468   1.00
H2       -0.29034   0.60347    0.55700   1.00
H2       -0.29273   0.64397    0.58042   1.00
H2       0.06021    0.83933    0.54631   1.00
H2       0.06576    0.87584    0.57100   1.00
H2       0.16939    1.01364    0.57097   1.00
H2       -0.40886   0.49613    0.55659   1.00
H2       -0.42311   0.54864    0.57455   1.00
C2       -0.22588   0.51111    0.51265   1.00
C3       -0.25075   0.55714    0.51192   1.00
O2       -0.31210   0.53875    0.50258   1.00
C3       -0.17097   0.52575    0.52586   1.00
H1       -0.14961   0.49247    0.52639   1.00
C3a      -0.22184   0.61508    0.52462   1.00
H1       -0.24400   0.64771    0.52473   1.00
C3b      -0.14379   0.58222    0.53894   1.00
C4       -0.16926   0.62737    0.53843   1.00
O_3      -0.21868   0.61438    0.57884   1.00
C5       -0.30075   0.56911    0.48323   1.00
H2       -0.27075   0.62591    0.48428   1.00
C5       -0.37084   0.54728    0.47407   1.00
H2       -0.27283   0.55156    0.47324   1.00
H2       -0.39011   0.57967    0.48070   1.00
H2       -0.40626   0.49412    0.47918   1.00
C5       -0.36955   0.55167    0.45071   1.00
H2       -0.33008   0.60363    0.44584   1.00
H2       -0.41994   0.54099    0.44474   1.00
H2       -0.35870   0.51307    0.44373   1.00
C5       -0.33642   0.53470    0.58216   1.00
H2       -0.33775   0.53885    0.59897   1.00
H2       -0.31889   0.49765    0.57889   1.00
C5       -0.40759   0.50937    0.57295   1.00
H2       -0.44590   0.46255    0.58095   1.00
C5       0.13080    0.26784    0.57647   1.00
H2       0.08406    0.22060    0.57167   1.00
H2       0.14399    0.30437    0.56371   1.00
C5       0.11557    0.29634    0.59588   1.00
H2       0.09002    0.32603    0.59204   1.00
H2       0.16384    0.33002    0.60414   1.00
O_3      0.44201    0.27926    0.56537   1.00
C4       0.31495    0.17317    0.55192   1.00
C3c      0.26994    0.19878    0.55311   1.00
H1       0.27820    0.24117    0.54362   1.00
C3d      0.30272    0.11728    0.56421   1.00
C3       0.21444    0.17100    0.56668   1.00
O2       0.16797    0.19312    0.56523   1.00
C3       0.24826    0.09035    0.57801   1.00
H1       0.24232    0.04908    0.58764   1.00
C2       0.20269    0.11611    0.57957   1.00
C5       0.47734    0.25559    0.57748   1.00
H2       0.52956    0.27249    0.57159   1.00
H2       0.44907    0.19876    0.57836   1.00
C5       0.48362    0.28466    0.59865   1.00
H2       0.43155    0.26937    0.60431   1.00
H2       0.51247    0.34139    0.59761   1.00
C5       0.51945    0.25938    0.61306   1.00
H2       0.57130    0.27405    0.60742   1.00
H2       0.48946    0.20292    0.61465   1.00
H2       0.52491    0.28234    0.62833   1.00
C5       0.33150    0.04409    0.54942   1.00
C5       0.18566    0.24767    0.57887   1.00
H2       0.33544    0.06630    0.53409   1.00
H2       0.27883    0.00005    0.55143   1.00
H2       0.23682    0.29153    0.57492   1.00
H2       0.18804    0.23334    0.59496   1.00
H2       0.07995    0.25427    0.60617   1.00
H2       0.40187    0.01335    0.51829   1.00
H2       0.32808    -0.06245   0.52829   1.00
C2       0.48896    0.26031    0.51266   1.00
C3       0.42491    0.20967    0.50527   1.00
O2       0.42047    0.17579    0.48744   1.00
C3       0.49308    0.28344    0.53283   1.00
H1       0.54099    0.32338    0.53878   1.00
C3a      0.36749    0.18232    0.51817   1.00
H1       0.31968    0.14088    0.51265   1.00
C3b      0.43636    0.25460    0.54582   1.00
C4       0.37295    0.20353    0.53855   1.00
O_3      0.34837    0.09352    0.56473   1.00
C5       0.39884    0.20198    0.47147   1.00
H2       0.34784    0.19622    0.47474   1.00
C5       0.39412    0.16119    0.45242   1.00
H2       0.43607    0.25701    0.46885   1.00
H2       0.34539    0.11164    0.45296   1.00
H2       0.43596    0.14893    0.45323   1.00
C5       0.39895    0.19964    0.43262   1.00
H2       0.36028    0.21618    0.43280   1.00
H2       0.38958    0.16630    0.41919   1.00
H2       0.45090    0.24512    0.43062   1.00
C5       0.38212    0.01860    0.55081   1.00
H2       0.37013    -0.01379   0.56461   1.00
H2       0.43402    0.06347    0.55305   1.00
C5       0.38090    -0.02110   0.53171   1.00
H2       0.41300    -0.04488   0.53412   1.00
C5       0.75215    0.03660    0.63376   1.00
H2       0.74556    -0.01419   0.63006   1.00
H2       0.70029    0.03032    0.63313   1.00
C5       0.78235    0.05785    0.65534   1.00
H2       0.74172    0.03322    0.66704   1.00
H2       0.80757    0.11421    0.65704   1.00
O_3      0.85855    0.27757    0.55640   1.00
C4       0.82602    0.14094    0.55191   1.00
C3c      0.79296    0.10792    0.56994   1.00
H1       0.74444    0.10336    0.57379   1.00
C3d      0.88873    0.14548    0.54704   1.00
C3       0.82212    0.08124    0.58337   1.00
O2       0.78308    0.04244    0.59941   1.00
C3       0.91853    0.12012    0.56057   1.00
H1       0.96782    0.12692    0.55653   1.00
C2       0.88614    0.08724    0.57897   1.00
C5       0.92332    0.32417    0.54843   1.00
H2       0.92079    0.35950    0.53714   1.00
H2       0.94709    0.29696    0.54093   1.00
C5       0.96812    0.36613    0.56599   1.00
H2       0.96910    0.33071    0.57753   1.00
H2       0.94424    0.39356    0.57324   1.00
C5       1.04055    0.41669    0.55872   1.00
H2       1.03991    0.45192    0.54709   1.00
H2       1.06531    0.38925    0.55212   1.00
H2       1.07212    0.44793    0.57169   1.00
C5       0.90485    0.13879    0.51315   1.00
C5       0.79657    0.08405    0.61674   1.00
H2       0.85016    0.11941    0.50962   1.00
H2       0.91273    0.09437    0.51541   1.00
H2       0.78268    0.12410    0.61375   1.00
H2       0.85158    0.11063    0.62122   1.00
H2       0.82022    0.04106    0.65854   1.00
H2       0.86868    0.14414    0.47145   1.00
H2       0.90843    0.09218    0.47486   1.00
C2       0.74371    0.22984    0.51160   1.00
C3       0.72386    0.16023    0.50974   1.00
O2       0.69223    0.12474    0.49231   1.00
C3       0.78830    0.26786    0.52758   1.00
H1       0.80306    0.32078    0.52974   1.00
C3a      0.75001    0.13094    0.52337   1.00
H1       0.73741    0.07865    0.52104   1.00
C3b      0.81593    0.23915    0.54072   1.00
C4       0.79698    0.17023    0.53866   1.00
O_3      0.92578    0.18196    0.53027   1.00
C5       0.62144    0.08351    0.49557   1.00
H2       0.61044    0.04600    0.50803   1.00
C5       0.59042    0.04518    0.47575   1.00
H2       0.59804    0.11517    0.49952   1.00
H2       0.59933    0.00115    0.47484   1.00
H2       0.61955    0.08002    0.46303   1.00
C5       0.51374    0.02082    0.47379   1.00
H2       0.48627    -0.00941   0.48740   1.00
H2       0.49183    -0.01164   0.46007   1.00
H2       0.50468    0.06479    0.47208   1.00
C5       0.94771    0.18064    0.49522   1.00
H2       1.00055    0.18996    0.49720   1.00
H2       0.95092    0.23134    0.49568   1.00
C5       0.91751    0.14522    0.47483   1.00
H2       0.95359    0.17352    0.46232   1.00
C5       0.70062    -0.10566   0.86082   1.00
H2       0.73666    -0.04987   0.86144   1.00
H2       0.64904    -0.11173   0.85923   1.00
C5       0.71742    -0.13631   0.84221   1.00
H2       0.69499    -0.12850   0.82814   1.00
H2       0.69686    -0.19192   0.84450   1.00
O_3      0.60378    -0.28323   0.95219   1.00
C4       0.68496    -0.14084   0.94804   1.00
C3c      0.67860    -0.12655   0.92769   1.00
H1       0.62960    -0.13681   0.92199   1.00
C3d      0.74947    -0.12618   0.95525   1.00
C3       0.73469    -0.09988   0.91435   1.00
O2       0.72655    -0.07947   0.89540   1.00
C3       0.80513    -0.10084   0.94190   1.00
H1       0.85303    -0.09267   0.94794   1.00
C2       0.79942    -0.08680   0.92122   1.00
C5       0.63417    -0.31124   0.96471   1.00
H2       0.60008    -0.34195   0.97740   1.00
H2       0.68296    -0.27041   0.97134   1.00
C5       0.64886    -0.35762   0.95162   1.00
H2       0.68136    -0.32738   0.93861   1.00
H2       0.59975    -0.39854   0.94523   1.00
C5       0.68433    -0.38846   0.96393   1.00
H2       0.65236    -0.41833   0.97702   1.00
H2       0.73448    -0.34776   0.96973   1.00
H2       0.69329    -0.42337   0.95423   1.00
C5       0.76993    -0.09058   0.98817   1.00
C5       0.70715    -0.13334   0.88138   1.00
H2       0.72624    -0.08115   0.98857   1.00
H2       0.81691    -0.04221   0.98390   1.00
H2       0.65727    -0.17800   0.88591   1.00
H2       0.74511    -0.15114   0.88046   1.00
H2       0.77367    -0.11077   0.83959   1.00
H2       0.72200    -0.07579   1.02740   1.00
H2       0.81053    -0.01194   1.02276   1.00
C2       0.51479    -0.22907   0.98875   1.00
C3       0.55259    -0.15767   0.98610   1.00
O2       0.54680    -0.11499   0.99989   1.00
C3       0.53249    -0.27013   0.97695   1.00
H1       0.50345    -0.32503   0.97824   1.00
C3a      0.60763    -0.12909   0.97232   1.00
H1       0.63848    -0.07420   0.97132   1.00
C3b      0.58861    -0.24145   0.96374   1.00
C4       0.62679    -0.17042   0.96136   1.00
O_3      0.75735    -0.14407   0.97471   1.00
C5       0.50479    -0.09094   0.99199   1.00
H2       0.52601    -0.06217   0.97757   1.00
C5       0.50191    -0.04333   1.00795   1.00
H2       0.45228    -0.13394   0.98903   1.00
H2       0.54941    0.00715    1.00680   1.00
H2       0.50286    -0.06438   1.02314   1.00
C5       0.43849    -0.03527   1.00578   1.00
H2       0.43547    -0.01941   0.99005   1.00
H2       0.44110    0.00397    1.01650   1.00
H2       0.39065    -0.08385   1.00946   1.00
C5       0.77949    -0.11195   1.00925   1.00
H2       0.82965    -0.10989   1.00974   1.00
H2       0.73953    -0.16621   1.01164   1.00
C5       0.77496    -0.06686   1.02595   1.00
H2       0.78917    -0.07921   1.04084   1.00
C5       0.26990    0.13334    0.92257   1.00
H2       0.22318    0.08628    0.92750   1.00
H2       0.30704    0.14693    0.93518   1.00
C5       0.29796    0.11860    0.90298   1.00
H2       0.32835    0.09363    0.90660   1.00
H2       0.33085    0.16700    0.89468   1.00
O_3      0.27768    0.44258    0.93442   1.00
C4       0.17318    0.31495    0.94808   1.00
C3c      0.19951    0.27059    0.94664   1.00
H1       0.24248    0.27937    0.95594   1.00
C3d      0.11655    0.30204    0.93604   1.00
C3       0.17172    0.21509    0.93308   1.00
O2       0.19467    0.16924    0.93429   1.00
C3       0.08959    0.24759    0.92224   1.00
H1       0.04772    0.24113    0.91281   1.00
C2       0.11607    0.20268    0.92043   1.00
C5       0.25285    0.47734    0.92253   1.00
H2       0.26941    0.52943    0.92846   1.00
H2       0.19599    0.44850    0.92186   1.00
C5       0.28112    0.48397    0.90123   1.00
H2       0.26619    0.43205    0.89551   1.00
H2       0.33788    0.51339    0.90205   1.00
C5       0.25456    0.51921    0.88705   1.00
H2       0.26888    0.57091    0.89274   1.00
H2       0.19807    0.48866    0.88566   1.00
H2       0.27695    0.52495    0.87167   1.00
C5       0.04313    0.32964    0.95128   1.00
C5       0.24876    0.18755    0.92043   1.00
H2       0.06609    0.33385    0.96650   1.00
H2       -0.00057   0.27673    0.94936   1.00
H2       0.29238    0.23895    0.92428   1.00
H2       0.23360    0.18972    0.90441   1.00
H2       0.25565    0.08266    0.89281   1.00
H2       0.01258    0.39910    0.98274   1.00
H2       -0.06316   0.32480    0.97294   1.00
C2       0.26023    0.48894    0.98734   1.00
C3       0.21044    0.42464    0.99483   1.00
O2       0.17716    0.41978    1.01282   1.00
C3       0.28259    0.49335    0.96707   1.00
H1       0.32190    0.54147    0.96104   1.00
C3a      0.18313    0.36724    0.98192   1.00
H1       0.14230    0.31920    0.98752   1.00
C3b      0.25377    0.43663    0.95408   1.00
C4       0.20353    0.37296    0.96145   1.00
O_3      0.09200    0.34706    0.93576   1.00
C5       0.20451    0.39865    1.02859   1.00
H2       0.19926    0.34792    1.02522   1.00
C5       0.16433    0.39340    1.04784   1.00
H2       0.25950    0.43637    1.03103   1.00
H2       0.11509    0.34434    1.04742   1.00
H2       0.15139    0.43480    1.04720   1.00
C5       0.20382    0.39872    1.06745   1.00
H2       0.22098    0.36055    1.06709   1.00
H2       0.17096    0.38896    1.08103   1.00
H2       0.24898    0.45094    1.06936   1.00
C5       0.01673    0.37956    0.95015   1.00
H2       -0.01631   0.36721    0.93648   1.00
H2       0.06110    0.43172    0.94782   1.00
C5       -0.02240   0.37781    0.96945   1.00
H2       -0.04686   0.40937    0.96724   1.00
C5       0.03702    0.75244    0.86619   1.00
H2       -0.01381   0.74576    0.86988   1.00
H2       0.03082    0.70061    0.86680   1.00
C5       0.05835    0.78275    0.84462   1.00
H2       0.03382    0.74217    0.83290   1.00
H2       0.11473    0.80804    0.84294   1.00
O_3      0.27765    0.85875    0.94365   1.00
C4       0.14094    0.82602    0.94809   1.00
C3c      0.10803    0.79302    0.93004   1.00
H1       0.10356    0.74455    0.92618   1.00
C3d      0.14536    0.88867    0.95298   1.00
C3       0.08135    0.82218    0.91661   1.00
O2       0.04266    0.78319    0.90055   1.00
C3       0.12001    0.91847    0.93945   1.00
H1       0.12672    0.96771    0.94350   1.00
C2       0.08723    0.88614    0.92103   1.00
C5       0.32414    0.92351    0.95165   1.00
H2       0.35945    0.92097    0.96295   1.00
H2       0.29685    0.94718    0.95915   1.00
C5       0.36616    0.96842    0.93412   1.00
H2       0.33076    0.96940    0.92256   1.00
H2       0.39367    0.94463    0.92687   1.00
C5       0.41661    1.04084    0.94141   1.00
H2       0.45181    1.04019    0.95306   1.00
H2       0.38907    1.06550    0.94802   1.00
H2       0.44788    1.07249    0.92847   1.00
C5       0.13848    0.90460    0.98687   1.00
C5       0.08436    0.79681    0.88323   1.00
H2       0.11915    0.84991    0.99038   1.00
H2       0.09403    0.91242    0.98461   1.00
H2       0.12445    0.78298    0.88623   1.00
H2       0.11090    0.85184    0.87878   1.00
H2       0.04151    0.82058    0.84143   1.00
H2       0.14369    0.86827    1.02856   1.00
H2       0.09164    0.90793    1.02515   1.00
C2       0.22984    0.74372    0.98841   1.00
C3       0.16020    0.72376    0.99024   1.00
O2       0.12465    0.69202    1.00765   1.00
C3       0.26789    0.78840    0.97244   1.00
H1       0.32085    0.80325    0.97031   1.00
C3a      0.13090    0.74992    0.97660   1.00
H1       0.07859    0.73724    0.97892   1.00
C3b      0.23918    0.81603    0.95931   1.00
C4       0.17023    0.79698    0.96134   1.00
O_3      0.18173    0.92566    0.96977   1.00
C5       0.08350    0.62124    1.00436   1.00
H2       0.04604    0.61025    0.99188   1.00
C5       0.04509    0.59009    1.02415   1.00
H2       0.11524    0.59792    1.00041   1.00
H2       0.00101    0.59892    1.02506   1.00
H2       0.07986    0.61919    1.03689   1.00
C5       0.02082    0.51342    1.02609   1.00
H2       -0.00932   0.48599    1.01246   1.00
H2       -0.01169   0.49141    1.03979   1.00
H2       0.06484    0.50443    1.02781   1.00
C5       0.18021    0.94741    1.00482   1.00
H2       0.18946    1.00023    1.00286   1.00
H2       0.23095    0.95069    1.00438   1.00
C5       0.14472    0.91708    1.02520   1.00
H2       0.17291    0.95311    1.03773   1.00
C5       -0.02430   0.02584    0.46331   1.00
H2       -0.06635   0.01872    0.45310   1.00
H2       -0.03990   0.03183    0.47880   1.00
C5       -0.01595   -0.03788   0.46229   1.00
H2       -0.05410   -0.07933   0.47215   1.00
H2       0.03621    -0.02458   0.46729   1.00
O_3      0.26137    0.35020    0.46943   1.00
C4       0.14110    0.31559    0.44784   1.00
C3c      0.09262    0.24998    0.45445   1.00
H1       0.07584    0.24207    0.47007   1.00
C3d      0.16155    0.32497    0.42735   1.00
C3       0.06581    0.19360    0.44122   1.00
O2       0.01264    0.13279    0.44810   1.00
C3       0.13593    0.26872    0.41423   1.00
H1       0.15492    0.27800    0.39884   1.00
C2       0.08742    0.20189    0.42073   1.00
C5       0.32053    0.38539    0.45738   1.00
H2       0.35863    0.43501    0.46425   1.00
H2       0.30773    0.39561    0.44191   1.00
C5       0.35261    0.34058    0.45557   1.00
H2       0.31391    0.29028    0.44924   1.00
H2       0.36575    0.33124    0.47109   1.00
C5       0.41621    0.37409    0.44205   1.00
H2       0.45487    0.42455    0.44821   1.00
H2       0.40275    0.38127    0.42636   1.00
H2       0.43980    0.34129    0.44127   1.00
C5       0.18436    0.42744    0.41422   1.00
C5       0.03812    0.09244    0.45647   1.00
H2       0.15912    0.43788    0.42708   1.00
H2       0.14630    0.40217    0.40182   1.00
H2       0.07174    0.11909    0.46970   1.00
H2       0.06887    0.08174    0.44533   1.00
H2       -0.02488   -0.05917   0.44656   1.00
H2       0.21250    0.56574    0.41959   1.00
H2       0.17370    0.52995    0.39519   1.00
C2       0.23018    0.48754    0.48787   1.00
C3       0.16791    0.46896    0.47803   1.00
O2       0.14399    0.51422    0.47702   1.00
C3       0.26000    0.44620    0.48494   1.00
H1       0.30673    0.45802    0.49267   1.00
C3a      0.13809    0.41131    0.46522   1.00
H1       0.09249    0.40003    0.45689   1.00
C3b      0.23137    0.39018    0.47168   1.00
C4       0.17003    0.37239    0.46166   1.00
O_3      0.21287    0.38745    0.42045   1.00
C5       0.09168    0.49677    0.49141   1.00
H2       0.04805    0.44426    0.48871   1.00
C5       0.06722    0.54838    0.48910   1.00
H2       0.11100    0.49943    0.50713   1.00
H2       0.03207    0.53314    0.47587   1.00
H2       0.11251    0.59844    0.48518   1.00
C5       0.03203    0.55468    0.50834   1.00
H2       -0.00963   0.50340    0.51295   1.00
H2       0.00994    0.58819    0.50553   1.00
H2       0.06905    0.57820    0.52113   1.00
C5       0.24234    0.49494    0.40642   1.00
H2       0.25974    0.48574    0.39157   1.00
H2       0.28604    0.51270    0.41713   1.00
C5       0.22098    0.54943    0.40441   1.00
H2       0.26194    0.59542    0.39674   1.00
C5       0.74830    0.71236    0.37835   1.00
H2       0.75376    0.75284    0.36773   1.00
H2       0.69545    0.66933    0.37629   1.00
C5       0.80057    0.68992    0.37279   1.00
H2       0.78157    0.65294    0.35997   1.00
H2       0.81010    0.66572    0.38613   1.00
O_3      0.67820    0.74043    0.47955   1.00
C4       0.68449    0.82673    0.44787   1.00
C3c      0.68439    0.79375    0.42982   1.00
H1       0.64023    0.74547    0.42590   1.00
C3d      0.74215    0.89007    0.45255   1.00
C3       0.74120    0.82173    0.41675   1.00
O2       0.73424    0.79086    0.39823   1.00
C3       0.79930    0.91744    0.43976   1.00
H1       0.84327    0.96493    0.44435   1.00
C2       0.80035    0.88438    0.42156   1.00
C5       0.71982    0.77670    0.49619   1.00
H2       0.69068    0.76358    0.51070   1.00
H2       0.74412    0.83288    0.49383   1.00
C5       0.77515    0.75772    0.49805   1.00
H2       0.80305    0.76905    0.48335   1.00
H2       0.75034    0.70166    0.50059   1.00
C5       0.82437    0.79693    0.51542   1.00
H2       0.79678    0.78623    0.53012   1.00
H2       0.85094    0.85283    0.51254   1.00
H2       0.86355    0.78128    0.51682   1.00
C5       0.71744    0.96392    0.46887   1.00
C5       0.75669    0.74288    0.39959   1.00
H2       0.66230    0.93333    0.46507   1.00
H2       0.74356    1.00361    0.45694   1.00
H2       0.72483    0.70219    0.41074   1.00
H2       0.81098    0.76650    0.40467   1.00
H2       0.84992    0.73424    0.36762   1.00
H2       0.62397    0.99088    0.49136   1.00
H2       0.68741    1.06499    0.47750   1.00
C2       0.51645    0.74058    0.48936   1.00
C3       0.51678    0.78078    0.47294   1.00
O2       0.47319    0.80680    0.47283   1.00
C3       0.57086    0.72704    0.49106   1.00
H1       0.57122    0.69500    0.50315   1.00
C3a      0.57160    0.80770    0.45907   1.00
H1       0.57305    0.84155    0.44727   1.00
C3b      0.62637    0.75568    0.47762   1.00
C4       0.62715    0.79649    0.46149   1.00
O_3      0.74687    0.92208    0.47086   1.00
C5       0.41738    0.76792    0.45986   1.00
H2       0.43464    0.76815    0.44398   1.00
C5       0.37230    0.80055    0.46030   1.00
H2       0.38737    0.71408    0.46517   1.00
H2       0.39527    0.84588    0.45013   1.00
H2       0.37453    0.82003    0.47596   1.00
C5       0.29789    0.75071    0.45410   1.00
H2       0.29698    0.72769    0.43913   1.00
H2       0.26822    0.77766    0.45294   1.00
H2       0.27140    0.70940    0.46562   1.00
C5       0.72493    0.99893    0.48919   1.00
H2       0.77952    1.03830    0.49131   1.00
H2       0.71177    0.96041    0.50143   1.00
C5       0.67897    1.03091    0.49066   1.00
H2       0.69093    1.06190    0.50472   1.00
C5       0.23721    0.13688    0.43499   1.00
H2       0.24692    0.13668    0.41848   1.00
H2       0.28801    0.16029    0.44240   1.00
C5       0.20304    0.18027    0.43902   1.00
H2       0.24179    0.23555    0.43946   1.00
H2       0.17528    0.16534    0.45374   1.00
O_3      0.13445    -0.16353   0.48879   1.00
C4       0.17403    -0.14178   0.44776   1.00
C3c      0.20478    -0.07114   0.44464   1.00
H1       0.25149    -0.03697   0.45252   1.00
C3d      0.11372    -0.18546   0.43712   1.00
C3       0.17556    -0.04341   0.43162   1.00
O2       0.21276    0.02526    0.42742   1.00
C3       0.08379    -0.15794   0.42444   1.00
H1       0.03626    -0.19331   0.41716   1.00
C2       0.11382    -0.08659   0.42129   1.00
C5       0.07046    -0.22275   0.49177   1.00
H2       0.07299    -0.25814   0.50303   1.00
H2       0.05010    -0.25111   0.47724   1.00
C5       0.02171    -0.20038   0.49970   1.00
H2       0.02064    -0.16351   0.48872   1.00
H2       0.04221    -0.17269   0.51429   1.00
C5       -0.05006   -0.26173   0.50268   1.00
H2       -0.04930   -0.29898   0.51352   1.00
H2       -0.07152   -0.28802   0.48800   1.00
H2       -0.08460   -0.24454   0.50891   1.00
C5       0.10425    -0.28709   0.42808   1.00
C5       0.19449    0.06173    0.44103   1.00
H2       0.15900    -0.26865   0.43124   1.00
H2       0.09855    -0.27825   0.41173   1.00
H2       0.20638    0.05425    0.45692   1.00
H2       0.13888    0.04479    0.44037   1.00
H2       0.16659    0.17385    0.42662   1.00
H2       0.14627    -0.38780   0.43199   1.00
H2       0.10982    -0.38961   0.40728   1.00
C2       0.25621    -0.22867   0.48887   1.00
C3       0.27949    -0.21486   0.46862   1.00
O2       0.31509    -0.24394   0.46046   1.00
C3       0.20815    -0.21005   0.49532   1.00
H1       0.19065    -0.21832   0.51086   1.00
C3a      0.25329    -0.18478   0.45529   1.00
H1       0.26869    -0.17811   0.43954   1.00
C3b      0.18058    -0.18216   0.48187   1.00
C4       0.20297    -0.16943   0.46166   1.00
O_3      0.07870    -0.25493   0.44081   1.00
C5       0.38545    -0.19588   0.45991   1.00
H2       0.39597    -0.15054   0.45054   1.00
C5       0.42102    -0.23153   0.45040   1.00
H2       0.40583    -0.17826   0.47548   1.00
H2       0.41484    -0.23212   0.43363   1.00
H2       0.39307    -0.28572   0.45546   1.00
C5       0.49711    -0.19771   0.45611   1.00
H2       0.52305    -0.14245   0.45242   1.00
H2       0.52247    -0.22137   0.44760   1.00
H2       0.50388    -0.20439   0.47260   1.00
C5       0.06349    -0.36328   0.43240   1.00
H2       0.01135    -0.38378   0.42599   1.00
H2       0.05762    -0.37058   0.44914   1.00
C5       0.09820    -0.40136   0.42367   1.00
H2       0.06382    -0.45729   0.42523   1.00
C5       0.29172    0.06220    0.13642   1.00
H2       0.27136    0.09538    0.14145   1.00
H2       0.34739    0.09147    0.13949   1.00
C5       0.25771    -0.00478   0.14883   1.00
H2       0.28284    0.00274    0.16388   1.00
H2       0.26129    -0.04552   0.14044   1.00
O_3      0.35627    0.05658    0.03343   1.00
C4       0.31527    0.14217    0.05204   1.00
C3c      0.32328    0.13720    0.07298   1.00
H1       0.37364    0.15520    0.07918   1.00
C3d      0.24932    0.11932    0.04432   1.00
C3       0.26679    0.10825    0.08618   1.00
O2       0.27931    0.11271    0.10671   1.00
C3       0.19284    0.08928    0.05736   1.00
H1       0.14302    0.07029    0.05064   1.00
C2       0.19994    0.08318    0.07855   1.00
C5       0.31451    0.02015    0.01682   1.00
H2       0.34458    0.02803    0.00268   1.00
H2       0.27565    0.03558    0.01375   1.00
C5       0.27837    -0.05518   0.02219   1.00
H2       0.24986    -0.06278   0.03663   1.00
H2       0.31763    -0.07016   0.02503   1.00
C5       0.22983    -0.09852   0.00516   1.00
H2       0.25789    -0.09082   -0.00933   1.00
H2       0.18920    -0.08523   0.00279   1.00
H2       0.20502    -0.15351   0.00916   1.00
C5       0.24613    0.18170    0.01761   1.00
C5       0.27873    0.05322    0.11354   1.00
H2       0.29893    0.22394    0.02049   1.00
H2       0.20970    0.19318    0.02568   1.00
H2       0.31983    0.04807    0.10585   1.00
H2       0.22926    0.00574    0.11032   1.00
H2       0.20292    -0.02207   0.15198   1.00
H2       0.31394    0.27965    -0.01446   1.00
H2       0.23615    0.27670    -0.00596   1.00
C2       0.48407    0.22260    0.01084   1.00
C3       0.46668    0.26695    0.02083   1.00
O2       0.49158    0.33273    0.01393   1.00
C3       0.44673    0.15225    0.01557   1.00
H1       0.45991    0.11722    0.00858   1.00
C3a      0.41196    0.24023    0.03473   1.00
H1       0.39679    0.27428    0.04138   1.00
C3b      0.39096    0.12555    0.02891   1.00
C4       0.37306    0.16956    0.03859   1.00
O_3      0.23811    0.11833    0.02366   1.00
C5       0.54600    0.37906    0.02629   1.00
H2       0.52938    0.37640    0.04237   1.00
C5       0.56987    0.45054    0.01789   1.00
H2       0.58907    0.36851    0.02585   1.00
H2       0.53428    0.46763    0.02333   1.00
H2       0.56442    0.44609    0.00109   1.00
C5       0.64389    0.50258    0.02387   1.00
H2       0.64967    0.50241    0.04061   1.00
H2       0.65743    0.55492    0.01897   1.00
H2       0.68108    0.49078    0.01637   1.00
C5       0.23211    0.17778    -0.00507   1.00
H2       0.17636    0.14400    -0.00757   1.00
H2       0.25809    0.15272    -0.01249   1.00
C5       0.25710    0.24871    -0.01441   1.00
H2       0.23977    0.24338    -0.03042   1.00
C5       0.72690    0.73195    0.12771   1.00
H2       0.77274    0.74210    0.13657   1.00
H2       0.68879    0.67744    0.13038   1.00
C5       0.69959    0.77825    0.13552   1.00
H2       0.66809    0.75632    0.14941   1.00
H2       0.66798    0.78400    0.12361   1.00
O_3      0.72494    0.66775    0.02440   1.00
C4       0.82681    0.68456    0.05210   1.00
C3c      0.79934    0.68089    0.07147   1.00
H1       0.75546    0.63392    0.07643   1.00
C3d      0.88459    0.74595    0.04605   1.00
C3       0.82716    0.73761    0.08458   1.00
O2       0.80288    0.72778    0.10415   1.00
C3       0.91161    0.80290    0.05891   1.00
H1       0.95444    0.84958    0.05333   1.00
C2       0.88400    0.80029    0.07846   1.00
C5       0.75161    0.71066    0.00730   1.00
H2       0.73560    0.68156    -0.00722   1.00
H2       0.80849    0.74014    0.00773   1.00
C5       0.72468    0.76009    0.00767   1.00
H2       0.73903    0.78781    0.02242   1.00
H2       0.66791    0.73014    0.00704   1.00
C5       0.75326    0.81043    -0.01009   1.00
H2       0.73952    0.78307    -0.02487   1.00
H2       0.80978    0.84201    -0.00909   1.00
H2       0.73184    0.84517    -0.00982   1.00
C5       0.95831    0.73134    0.02596   1.00
C5       0.74959    0.74302    0.10549   1.00
H2       0.93415    0.67621    0.02974   1.00
H2       1.00146    0.76074    0.03666   1.00
H2       0.70636    0.70814    0.09547   1.00
H2       0.76607    0.79649    0.10074   1.00
H2       0.74227    0.82978    0.13987   1.00
H2       0.98851    0.64672    0.00015   1.00
H2       1.06411    0.71516    0.01215   1.00
C2       0.73989    0.51635    0.01068   1.00
C3       0.78828    0.52179    0.02517   1.00
O2       0.82056    0.48414    0.02305   1.00
C3       0.71881    0.56557    0.01094   1.00
H1       0.68056    0.56184    0.00039   1.00
C3a      0.81553    0.57653    0.03907   1.00
H1       0.85536    0.58216    0.04929   1.00
C3b      0.74761    0.62115    0.02435   1.00
C4       0.79647    0.62708    0.03854   1.00
O_3      0.91039    0.75381    0.02658   1.00
C5       0.79137    0.42758    0.03627   1.00
H2       0.79581    0.44407    0.05243   1.00
C5       0.83051    0.38932    0.03327   1.00
H2       0.73645    0.39299    0.03267   1.00
H2       0.87923    0.41641    0.04189   1.00
H2       0.84453    0.39342    0.01692   1.00
C5       0.78936    0.31393    0.03981   1.00
H2       0.77121    0.31063    0.05565   1.00
H2       0.82141    0.28943    0.03902   1.00
H2       0.74473    0.28400    0.02958   1.00
C5       0.98616    0.74211    0.00443   1.00
H2       1.02022    0.79781    0.00192   1.00
H2       0.94262    0.72497    -0.00631   1.00
C5       1.02431    0.70294    0.00041   1.00
H2       1.04988    0.71755    -0.01462   1.00
C5       0.13684    0.23700    0.06495   1.00
H2       0.13671    0.24677    0.08145   1.00
H2       0.16027    0.28778    0.05751   1.00
C5       0.18016    0.20275    0.06091   1.00
H2       0.23546    0.24146    0.06045   1.00
H2       0.16517    0.17495    0.04620   1.00
O_3      -0.16369   0.13432    0.01122   1.00
C4       -0.14177   0.17403    0.05224   1.00
C3c      -0.07113   0.20474    0.05534   1.00
H1       -0.03696   0.25141    0.04745   1.00
C3d      -0.18547   0.11377    0.06290   1.00
C3       -0.04340   0.17551    0.06836   1.00
O2       0.02528    0.21268    0.07254   1.00
C3       -0.15795   0.08384    0.07558   1.00
H1       -0.19332   0.03634    0.08287   1.00
C2       -0.08659   0.11382    0.07871   1.00
C5       -0.22296   0.07034    0.00827   1.00
H2       -0.25837   0.07288    -0.00298   1.00
H2       -0.25127   0.05005    0.02280   1.00
C5       -0.20067   0.02152    0.00034   1.00
H2       -0.16379   0.02045    0.01131   1.00
H2       -0.17303   0.04195    -0.01426   1.00
C5       -0.26208   -0.05023   -0.00262   1.00
H2       -0.29935   -0.04946   -0.01345   1.00
H2       -0.28832   -0.07163   0.01208   1.00
H2       -0.24495   -0.08482   -0.00884   1.00
C5       -0.28702   0.10443    0.07196   1.00
C5       0.06167    0.19431    0.05893   1.00
H2       -0.26854   0.15917    0.06879   1.00
H2       -0.27814   0.09877    0.08831   1.00
H2       0.05416    0.20616    0.04303   1.00
H2       0.04469    0.13870    0.05960   1.00
H2       0.17375    0.16633    0.07332   1.00
H2       -0.38765   0.14656    0.06806   1.00
H2       -0.38941   0.11017    0.09278   1.00
C2       -0.22868   0.25621    0.01113   1.00
C3       -0.21478   0.27955    0.03138   1.00
O2       -0.24378   0.31522    0.03953   1.00
C3       -0.21013   0.20809    0.00468   1.00
H1       -0.21847   0.19053    -0.01085   1.00
C3a      -0.18470   0.25335    0.04470   1.00
H1       -0.17797   0.26881    0.06044   1.00
C3b      -0.18225   0.18051    0.01814   1.00
C4       -0.16943   0.20297    0.03834   1.00
O_3      -0.25494   0.07879    0.05923   1.00
C5       -0.19567   0.38558    0.04006   1.00
H2       -0.15032   0.39609    0.04941   1.00
C5       -0.23123   0.42123    0.04957   1.00
H2       -0.17810   0.40590    0.02448   1.00
H2       -0.23177   0.41510    0.06634   1.00
H2       -0.28545   0.39331    0.04453   1.00
C5       -0.19737   0.49731    0.04384   1.00
H2       -0.14211   0.52322    0.04751   1.00
H2       -0.22097   0.52273    0.05235   1.00
H2       -0.20410   0.50404    0.02735   1.00
C5       -0.36323   0.06371    0.06766   1.00
H2       -0.38375   0.01158    0.07409   1.00
H2       -0.37059   0.05779    0.05093   1.00
C5       -0.40123   0.09851    0.07639   1.00
H2       -0.45717   0.06416    0.07485   1.00
C5       0.66284    1.30818    0.86968   1.00
H2       0.62719    1.31721    0.87895   1.00
H2       0.64464    1.30303    0.85378   1.00
C5       0.73589    1.36990    0.87169   1.00
H2       0.74312    1.41211    0.86145   1.00
H2       0.77402    1.35438    0.86777   1.00
O_3      0.61031    0.97809    0.86637   1.00
C4       0.52443    1.01777    0.88548   1.00
C3c      0.54567    1.08405    0.87853   1.00
H1       0.54055    1.09250    0.86265   1.00
C3d      0.53064    1.00773    0.90628   1.00
C3       0.57458    1.14037    0.89179   1.00
O2       0.58641    1.20221    0.88441   1.00
C3       0.56061    1.06387    0.91946   1.00
H1       0.56653    1.05399    0.93515   1.00
C2       0.58304    1.13134    0.91264   1.00
C5       0.62948    0.94098    0.87937   1.00
H2       0.61717    0.89072    0.87281   1.00
H2       0.60350    0.93171    0.89438   1.00
C5       0.70611    0.98311    0.88249   1.00
H2       0.71863    1.03405    0.88851   1.00
H2       0.73154    0.99150    0.86744   1.00
C5       0.73102    0.94743    0.89709   1.00
H2       0.71826    0.89633    0.89124   1.00
H2       0.70746    0.94115    0.91232   1.00
H2       0.78732    0.97826    0.89883   1.00
C5       0.44546    0.90679    0.91867   1.00
C5       0.65410    1.24026    0.87717   1.00
H2       0.41282    0.89778    0.90511   1.00
H2       0.43182    0.93334    0.93044   1.00
H2       0.66220    1.21258    0.86444   1.00
H2       0.69272    1.24925    0.88914   1.00
H2       0.74584    1.39117    0.88742   1.00
H2       0.33253    0.77058    0.91227   1.00
H2       0.32653    0.80747    0.93613   1.00
C2       0.44327    0.84562    0.84554   1.00
C3       0.39975    0.86680    0.85410   1.00
O2       0.33002    0.82384    0.85398   1.00
C3       0.51396    0.88450    0.84969   1.00
H1       0.54885    0.87066    0.84294   1.00
C3a      0.42713    0.92451    0.86689   1.00
H1       0.39266    0.93777    0.87425   1.00
C3b      0.54072    0.94055    0.86292   1.00
C4       0.49726    0.96092    0.87167   1.00
O_3      0.51531    0.94437    0.91362   1.00
C5       0.29987    0.84333    0.83860   1.00
H2       0.31057    0.89665    0.84090   1.00
C5       0.22287    0.79421    0.83968   1.00
H2       0.31907    0.83972    0.82335   1.00
H2       0.20162    0.81083    0.85224   1.00
H2       0.21496    0.74323    0.84405   1.00
C5       0.18604    0.78968    0.81957   1.00
H2       0.19886    0.84166    0.81462   1.00
H2       0.12975    0.75810    0.82144   1.00
H2       0.20055    0.76490    0.80741   1.00
C5       0.43130    0.83822    0.92699   1.00
H2       0.45466    0.84642    0.94234   1.00
H2       0.45778    0.81873    0.91713   1.00
C5       0.35443    0.78614    0.92782   1.00
H2       0.34572    0.73936    0.93588   1.00
C5       -0.06062   0.60069    0.96276   1.00
H2       -0.10774   0.60043    0.95795   1.00
H2       -0.01850   0.65407    0.96085   1.00
C5       -0.06714   0.57894    0.98528   1.00
H2       -0.05513   0.62268    0.99550   1.00
H2       -0.03160   0.55964    0.98863   1.00
O_3      0.09453    0.49050    0.89308   1.00
C4       -0.01844   0.50720    0.88523   1.00
C3c      -0.02252   0.54422    0.90173   1.00
H1       0.01817    0.59584    0.90437   1.00
C3d      -0.07247   0.44035    0.88189   1.00
C3       -0.07827   0.51520    0.91520   1.00
O2       -0.08275   0.55712    0.92948   1.00
C3       -0.12742   0.41086    0.89550   1.00
H1       -0.16647   0.35862    0.89274   1.00
C2       -0.13199   0.44731    0.91239   1.00
C5       0.08287    0.42530    0.88753   1.00
H2       0.12264    0.42816    0.87696   1.00
H2       0.03211    0.39466    0.88009   1.00
C5       0.08450    0.38927    0.90678   1.00
H2       0.04607    0.38812    0.91757   1.00
H2       0.13560    0.41997    0.91397   1.00
C5       0.06979    0.31675    0.90219   1.00
H2       0.10769    0.31750    0.89131   1.00
H2       0.01784    0.28536    0.89566   1.00
H2       0.07269    0.29177    0.91638   1.00
C5       -0.09386   0.41102    0.84849   1.00
C5       -0.05206   0.55379    0.94780   1.00
H2       -0.06279   0.46485    0.84338   1.00
H2       -0.14802   0.39839    0.85004   1.00
H2       0.00315    0.57195    0.94530   1.00
H2       -0.07590   0.50078    0.95400   1.00
H2       -0.12042   0.53843    0.98898   1.00
H2       -0.05332   0.43517    0.80639   1.00
H2       -0.14536   0.38867    0.80966   1.00
C2       0.15324    0.58984    0.84509   1.00
C3       0.09875    0.60193    0.84144   1.00
O2       0.09155    0.62496    0.82274   1.00
C3       0.15096    0.55304    0.86270   1.00
H1       0.19268    0.54445    0.86620   1.00
C3a      0.04307    0.57583    0.85500   1.00
H1       -0.00001   0.58217    0.85138   1.00
C3b      0.09453    0.52530    0.87580   1.00
C4       0.03992    0.53645    0.87199   1.00
O_3      -0.06853   0.39999    0.86680   1.00
C5       0.11461    0.69545    0.82358   1.00
H2       0.08522    0.70692    0.83497   1.00
C5       0.10390    0.71669    0.80247   1.00
H2       0.16978    0.72500    0.82758   1.00
H2       0.04926    0.70193    0.80090   1.00
H2       0.11346    0.68582    0.79117   1.00
C5       0.15035    0.79352    0.79831   1.00
H2       0.14407    0.82348    0.81061   1.00
H2       0.13713    0.80799    0.78357   1.00
H2       0.20513    0.80751    0.79727   1.00
C5       -0.08973   0.36479    0.83248   1.00
H2       -0.12960   0.31120    0.83582   1.00
H2       -0.03944   0.36746    0.83400   1.00
C5       -0.09813   0.38530    0.81087   1.00
H2       -0.10198   0.34647    0.79982   1.00
C5       0.42871    0.38409    0.96866   1.00
H2       0.41921    0.33188    0.96552   1.00
H2       0.37783    0.38021    0.96855   1.00
C5       0.46261    0.40770    0.98973   1.00
H2       0.42372    0.38640    1.00202   1.00
H2       0.49020    0.46437    0.99065   1.00
O_3      0.53175    0.61312    0.88810   1.00
C4       0.49264    0.47425    0.88525   1.00
C3c      0.46172    0.44497    0.90387   1.00
H1       0.41489    0.44336    0.90819   1.00
C3d      0.55313    0.47494    0.87978   1.00
C3       0.49094    0.41830    0.91728   1.00
O2       0.45361    0.38310    0.93402   1.00
C3       0.58304    0.44961    0.89327   1.00
H1       0.63071    0.45343    0.88874   1.00
C2       0.55285    0.42049    0.91226   1.00
C5       0.59581    0.65626    0.87910   1.00
H2       0.59328    0.69076    0.86751   1.00
H2       0.61641    0.62603    0.87167   1.00
C5       0.64430    0.69969    0.89583   1.00
H2       0.64536    0.66520    0.90769   1.00
H2       0.62356    0.73010    0.90301   1.00
C5       0.71612    0.74661    0.88743   1.00
H2       0.71537    0.78086    0.87547   1.00
H2       0.73781    0.71623    0.88089   1.00
H2       0.75046    0.77901    0.89979   1.00
C5       0.56306    0.46195    0.84586   1.00
C5       0.47155    0.42772    0.95080   1.00
H2       0.50831    0.44433    0.84302   1.00
H2       0.56890    0.41645    0.84848   1.00
H2       0.45953    0.46894    0.94755   1.00
H2       0.52713    0.45283    0.95453   1.00
H2       0.49915    0.38911    0.99275   1.00
H2       0.52144    0.46269    0.80449   1.00
H2       0.55812    0.40804    0.80806   1.00
C2       0.41045    0.56305    0.84485   1.00
C3       0.38740    0.49253    0.84386   1.00
O2       0.35207    0.45508    0.82708   1.00
C3       0.45828    0.60220    0.86005   1.00
H1       0.47560    0.65595    0.86155   1.00
C3a      0.41360    0.46337    0.85753   1.00
H1       0.39839    0.41014    0.85582   1.00
C3b      0.48586    0.57349    0.87320   1.00
C4       0.46369    0.50360    0.87199   1.00
O_3      0.58829    0.50775    0.86235   1.00
C5       0.28167    0.41698    0.83137   1.00
H2       0.27111    0.38112    0.84428   1.00
C5       0.24641    0.37621    0.81224   1.00
H2       0.26108    0.45119    0.83521   1.00
H2       0.25277    0.33056    0.81168   1.00
H2       0.27445    0.40839    0.79894   1.00
C5       0.17026    0.35487    0.81120   1.00
H2       0.14421    0.32747    0.82533   1.00
H2       0.14514    0.32061    0.79802   1.00
H2       0.16334    0.40006    0.80915   1.00
C5       0.60397    0.49977    0.82717   1.00
H2       0.65617    0.50694    0.82859   1.00
H2       0.60966    0.55157    0.82710   1.00
C5       0.56956    0.46185    0.80742   1.00
H2       0.60407    0.48701    0.79433   1.00
C5       0.63597    0.38894    0.29473   1.00
H2       0.65487    0.35511    0.28916   1.00
H2       0.63324    0.38357    0.31150   1.00
C5       0.68681    0.46352    0.28862   1.00
H2       0.73053    0.48707    0.29938   1.00
H2       0.66067    0.49408    0.28856   1.00
O_3      0.28636    0.26590    0.29089   1.00
C4       0.35126    0.19109    0.28124   1.00
C3c      0.41836    0.22996    0.28844   1.00
H1       0.42750    0.23882    0.30455   1.00
C3d      0.34053    0.17933    0.26022   1.00
C3       0.47443    0.25873    0.27509   1.00
O2       0.53881    0.28898    0.28337   1.00
C3       0.39615    0.20898    0.24685   1.00
H1       0.38523    0.20057    0.23082   1.00
C2       0.46429    0.24905    0.25387   1.00
C5       0.24234    0.26362    0.27536   1.00
H2       0.18961    0.24550    0.28100   1.00
H2       0.23943    0.22933    0.26277   1.00
C5       0.27100    0.33556    0.26718   1.00
H2       0.32438    0.35439    0.26207   1.00
H2       0.27308    0.36921    0.27983   1.00
C5       0.22735    0.33730    0.24966   1.00
H2       0.17386    0.31811    0.25463   1.00
H2       0.22718    0.30559    0.23674   1.00
H2       0.24822    0.39051    0.24418   1.00
C5       0.25071    0.07498    0.25208   1.00
C5       0.56422    0.35967    0.28586   1.00
H2       0.24729    0.05503    0.26770   1.00
H2       0.28391    0.06204    0.24280   1.00
H2       0.53100    0.36838    0.29650   1.00
H2       0.56611    0.38568    0.27124   1.00
H2       0.70909    0.46613    0.27329   1.00
H2       0.12716    -0.04813   0.26326   1.00
H2       0.17090    -0.06055   0.24200   1.00
C2       0.17826    0.10877    0.32086   1.00
C3       0.21223    0.07190    0.31708   1.00
O2       0.18131    0.00341    0.32173   1.00
C3       0.20481    0.17425    0.31209   1.00
H1       0.18103    0.20450    0.31511   1.00
C3a      0.27014    0.10006    0.30438   1.00
H1       0.29323    0.06959    0.30070   1.00
C3b      0.26108    0.20118    0.29894   1.00
C4       0.29417    0.16402    0.29495   1.00
O_3      0.27528    0.14582    0.25223   1.00
C5       0.20837    -0.00615   0.33991   1.00
H2       0.26448    0.01434    0.33862   1.00
C5       0.17249    -0.08304   0.34380   1.00
H2       0.19873    0.01950    0.35287   1.00
H2       0.19665    -0.10530   0.33408   1.00
H2       0.11885    -0.10526   0.33847   1.00
C5       0.17442    -0.10081   0.36628   1.00
H2       0.22798    -0.07386   0.37179   1.00
H2       0.15301    -0.15670   0.36824   1.00
H2       0.14292    -0.08644   0.37592   1.00
C5       0.17957    0.04046    0.24285   1.00
H2       0.18440    0.05126    0.22626   1.00
H2       0.15130    0.06449    0.24941   1.00
C5       0.14041    -0.03687   0.24687   1.00
H2       0.09185    -0.06128   0.23819   1.00
C5       0.59657    0.38409    0.28768   1.00
H2       0.57426    0.38885    0.27320   1.00
H2       0.57287    0.39947    0.29980   1.00
C5       0.57865    0.30916    0.29069   1.00
H2       0.52615    0.27790    0.29689   1.00
H2       0.61553    0.30675    0.30134   1.00
O_3      0.91715    0.65002    0.31481   1.00
C4       0.84036    0.64908    0.28111   1.00
C3c      0.77439    0.59360    0.28408   1.00
H1       0.74434    0.59376    0.29680   1.00
C3d      0.87830    0.64831    0.26428   1.00
C3       0.74655    0.53686    0.27098   1.00
O2       0.67890    0.48849    0.27339   1.00
C3       0.85124    0.59132    0.25142   1.00
H1       0.88316    0.59196    0.23913   1.00
C2       0.78489    0.53445    0.25434   1.00
C5       0.98407    0.66636    0.30953   1.00
H2       1.02340    0.71023    0.31847   1.00
H2       0.99414    0.67927    0.29310   1.00
C5       0.99090    0.60420    0.31397   1.00
H2       0.95036    0.55991    0.30548   1.00
H2       0.98137    0.59218    0.33045   1.00
C5       1.06171    0.61679    0.30796   1.00
H2       1.10246    0.66126    0.31628   1.00
H2       1.07034    0.62647    0.29138   1.00
H2       1.06626    0.57137    0.31173   1.00
C5       0.94696    0.75306    0.25032   1.00
C5       0.67292    0.43573    0.28622   1.00
H2       0.92079    0.77632    0.25857   1.00
H2       0.92252    0.73550    0.23515   1.00
H2       0.69399    0.45657    0.30154   1.00
H2       0.70118    0.41059    0.28028   1.00
H2       0.57941    0.28514    0.27595   1.00
H2       1.01526    0.90003    0.25257   1.00
H2       0.99790    0.86847    0.22665   1.00
C2       0.93073    0.81948    0.32170   1.00
C3       0.88942    0.81853    0.30552   1.00
O2       0.89123    0.87775    0.29949   1.00
C3       0.93843    0.76179    0.32465   1.00
H1       0.96827    0.76019    0.33720   1.00
C3a      0.85856    0.76150    0.29249   1.00
H1       0.83030    0.76319    0.27950   1.00
C3b      0.90947    0.70610    0.31127   1.00
C4       0.86928    0.70567    0.29501   1.00
O_3      0.94533    0.69921    0.26154   1.00
C5       0.83374    0.87944    0.30700   1.00
H2       0.78534    0.83512    0.30135   1.00
C5       0.83891    0.94575    0.29941   1.00
H2       0.83302    0.87880    0.32390   1.00
H2       0.82122    0.93831    0.28337   1.00
H2       0.89397    0.98538    0.29923   1.00
C5       0.79794    0.96915    0.31250   1.00
H2       0.74429    0.92700    0.31382   1.00
H2       0.79823    1.01412    0.30556   1.00
H2       0.82060    0.98516    0.32798   1.00
C5       1.02148    0.80709    0.24737   1.00
H2       1.04457    0.78758    0.23622   1.00
H2       1.04861    0.81384    0.26203   1.00
C5       1.02965    0.87560    0.24031   1.00
H2       1.08374    0.91142    0.23630   1.00
C5       0.77744    0.39727    0.28913   1.00
H2       0.80581    0.42182    0.27500   1.00
H2       0.81491    0.42051    0.30167   1.00
C5       0.71842    0.41244    0.29185   1.00
H2       0.73738    0.46397    0.29854   1.00
H2       0.67858    0.37360    0.30197   1.00
O_3      0.73054    0.07769    0.31374   1.00
C4       0.80875    0.15967    0.28111   1.00
C3c      0.81664    0.22441    0.28459   1.00
H1       0.84481    0.25350    0.29771   1.00
C3d      0.77270    0.12302    0.26377   1.00
C3       0.78773    0.25220    0.27148   1.00
O2       0.80457    0.31898    0.27447   1.00
C3       0.74275    0.14999    0.25089   1.00
H1       0.71353    0.11898    0.23818   1.00
C2       0.74960    0.21507    0.25431   1.00
C5       0.68216    0.01084    0.30767   1.00
H2       0.68719    -0.02862   0.31638   1.00
H2       0.68731    0.00298    0.29120   1.00
C5       0.61172    0.00113    0.31157   1.00
H2       0.60737    0.04175    0.30332   1.00
H2       0.60692    0.00847    0.32808   1.00
C5       0.55578    -0.06973   0.30469   1.00
H2       0.56011    -0.11053   0.31276   1.00
H2       0.55907    -0.07622   0.28807   1.00
H2       0.50468    -0.07643   0.30807   1.00
C5       0.81357    0.05861    0.24963   1.00
C5       0.75528    0.32165    0.28699   1.00
H2       0.86194    0.08510    0.25840   1.00
H2       0.82143    0.08460    0.23468   1.00
H2       0.75406    0.29920    0.30216   1.00
H2       0.70268    0.29270    0.28049   1.00
H2       0.69494    0.41251    0.27694   1.00
H2       0.89587    -0.00580   0.25199   1.00
H2       0.88377    0.01374    0.22611   1.00
C2       0.88883    0.06919    0.32165   1.00
C3       0.93022    0.11306    0.30604   1.00
O2       0.98940    0.11406    0.30041   1.00
C3       0.82225    0.05894    0.32408   1.00
H1       0.78992    0.02707    0.33620   1.00
C3a      0.90397    0.14390    0.29303   1.00
H1       0.93489    0.17422    0.28045   1.00
C3b      0.79553    0.08794    0.31071   1.00
C4       0.83637    0.13069    0.29501   1.00
O_3      0.75909    0.05702    0.26048   1.00
C5       1.04661    0.17171    0.30871   1.00
H2       1.04963    0.21998    0.30341   1.00
C5       1.10988    0.16973    0.30152   1.00
H2       1.04472    0.17045    0.32561   1.00
H2       1.12150    0.18932    0.28568   1.00
H2       1.09624    0.11519    0.30088   1.00
C5       1.17235    0.21072    0.31533   1.00
H2       1.18191    0.26360    0.31709   1.00
H2       1.21862    0.21285    0.30872   1.00
H2       1.16464    0.18644    0.33061   1.00
C5       0.79582    -0.01487   0.24605   1.00
H2       0.75462    -0.03776   0.23445   1.00
H2       0.77440    -0.04393   0.26038   1.00
C5       0.85832    -0.01989   0.23937   1.00
H2       0.84219    -0.07314   0.23487   1.00
C5       0.83192    0.63276    0.69430   1.00
H2       0.85171    0.59677    0.69512   1.00
H2       0.87746    0.68437    0.69281   1.00
C5       0.78527    0.61590    0.67550   1.00
H2       0.81610    0.63836    0.66153   1.00
H2       0.75007    0.63639    0.67755   1.00
O_3      0.74705    0.72940    0.78500   1.00
C4       0.80860    0.64837    0.78138   1.00
C3c      0.83013    0.65476    0.76112   1.00
H1       0.86907    0.70378    0.75549   1.00
C3d      0.75850    0.58383    0.78849   1.00
C3       0.80135    0.59867    0.74777   1.00
O2       0.83073    0.60685    0.72894   1.00
C3       0.72882    0.52817    0.77513   1.00
H1       0.68887    0.48025    0.78109   1.00
C2       0.74947    0.53391    0.75454   1.00
C5       0.68812    0.69894    0.79730   1.00
H2       0.69090    0.73301    0.80992   1.00
H2       0.67995    0.65018    0.80402   1.00
C5       0.62759    0.68417    0.78394   1.00
H2       0.62594    0.65169    0.77101   1.00
H2       0.63600    0.73326    0.77747   1.00
C5       0.56077    0.64863    0.79601   1.00
H2       0.56225    0.68057    0.80903   1.00
H2       0.55114    0.59850    0.80188   1.00
H2       0.51730    0.63961    0.78610   1.00
C5       0.77226    0.56341    0.82154   1.00
C5       0.79681    0.62618    0.71470   1.00
H2       0.82534    0.60715    0.82210   1.00
H2       0.77390    0.51647    0.81740   1.00
H2       0.80177    0.67603    0.71913   1.00
H2       0.74111    0.58816    0.71359   1.00
H2       0.75473    0.55964    0.67286   1.00
H2       0.83327    0.61140    0.86096   1.00
H2       0.80890    0.52290    0.85642   1.00
C2       0.88859    0.81854    0.82206   1.00
C3       0.92238    0.78082    0.81968   1.00
O2       0.97028    0.78667    0.83370   1.00
C3       0.83033    0.80076    0.81001   1.00
H1       0.80435    0.82973    0.81109   1.00
C3a      0.89657    0.72577    0.80590   1.00
H1       0.92073    0.69499    0.80511   1.00
C3b      0.80353    0.74464    0.79680   1.00
C4       0.83656    0.70654    0.79469   1.00
O_3      0.73189    0.57592    0.80784   1.00
C5       1.03666    0.82875    0.82603   1.00
H2       1.04487    0.80756    0.81170   1.00
C5       1.08649    0.83170    0.84223   1.00
H2       1.04623    0.88124    0.82299   1.00
H2       1.08959    0.78425    0.84122   1.00
H2       1.06382    0.83072    0.85731   1.00
C5       1.15802    0.89518    0.84027   1.00
H2       1.17758    0.89823    0.82462   1.00
H2       1.19422    0.89264    0.85118   1.00
H2       1.15704    0.94298    0.84382   1.00
C5       0.74041    0.55381    0.84248   1.00
H2       0.69233    0.50361    0.84285   1.00
H2       0.72595    0.59372    0.84469   1.00
C5       0.78934    0.55841    0.85943   1.00
H2       0.76213    0.54417    0.87421   1.00
C5       0.57916    0.43449    0.77406   1.00
H2       0.61859    0.41945    0.77596   1.00
H2       0.57220    0.45107    0.78929   1.00
C5       0.60473    0.49414    0.75876   1.00
H2       0.63957    0.54360    0.76628   1.00
H2       0.56069    0.49651    0.75218   1.00
O_3      0.23903    0.17662    0.77367   1.00
C4       0.35159    0.15907    0.78136   1.00
C3c      0.40732    0.22484    0.78442   1.00
H1       0.40752    0.25458    0.79728   1.00
C3d      0.35277    0.12078    0.76468   1.00
C3       0.46294    0.25361    0.77091   1.00
O2       0.51917    0.31464    0.77623   1.00
C3       0.40748    0.14978    0.75098   1.00
H1       0.40501    0.11940    0.73801   1.00
C2       0.46390    0.21651    0.75373   1.00
C5       0.19575    0.13247    0.75840   1.00
H2       0.14189    0.10159    0.76364   1.00
H2       0.21316    0.09677    0.75321   1.00
C5       0.19802    0.17626    0.74063   1.00
H2       0.25208    0.20854    0.73576   1.00
H2       0.17993    0.21124    0.74594   1.00
C5       0.15403    0.13199    0.72298   1.00
H2       0.10006    0.09927    0.72777   1.00
H2       0.17349    0.09873    0.71720   1.00
H2       0.15512    0.16491    0.71031   1.00
C5       0.30200    0.00650    0.77074   1.00
C5       0.51429    0.36932    0.76769   1.00
H2       0.30148    0.01346    0.78742   1.00
H2       0.34941    0.00572    0.76663   1.00
H2       0.46830    0.36951    0.77368   1.00
H2       0.50985    0.36607    0.75077   1.00
H2       0.63473    0.48832    0.74623   1.00
H2       0.21415    -0.11177   0.79491   1.00
H2       0.27789    -0.12159   0.78092   1.00
C2       0.17756    0.07177    0.82061   1.00
C3       0.23493    0.06540    0.82535   1.00
O2       0.22981    0.01786    0.83938   1.00
C3       0.18067    0.11021    0.80331   1.00
H1       0.13830    0.11752    0.79956   1.00
C3a      0.29269    0.09564    0.81258   1.00
H1       0.33463    0.08703    0.81577   1.00
C3b      0.23730    0.13837    0.79029   1.00
C4       0.29387    0.13111    0.79484   1.00
O_3      0.29696    0.05791    0.76012   1.00
C5       0.25827    0.04987    0.85806   1.00
H2       0.31322    0.08928    0.85636   1.00
C5       0.25168    -0.00578   0.87262   1.00
H2       0.23041    0.07468    0.86440   1.00
H2       0.29328    -0.01696   0.86924   1.00
H2       0.20285    -0.05306   0.86903   1.00
C5       0.25365    0.01376    0.89512   1.00
H2       0.30012    0.06375    0.89804   1.00
H2       0.25453    -0.02529   0.90518   1.00
H2       0.20737    0.01667    0.89938   1.00
C5       0.24040    -0.06161   0.76498   1.00
H2       0.24715    -0.07392   0.74909   1.00
H2       0.19446    -0.05562   0.76511   1.00
C5       0.23021    -0.11909   0.77955   1.00
H2       0.18947    -0.16901   0.77371   1.00
C5       0.57594    0.17274    0.78061   1.00
H2       0.59677    0.22874    0.78091   1.00
H2       0.56358    0.15550    0.79661   1.00
C5       0.51069    0.13866    0.76742   1.00
H2       0.46575    0.13195    0.77620   1.00
H2       0.50081    0.08791    0.76205   1.00
O_3      0.80719    0.05542    0.77715   1.00
C4       0.84101    0.19252    0.78133   1.00
C3c      0.77968    0.19098    0.78590   1.00
H1       0.75348    0.16818    0.79993   1.00
C3d      0.87485    0.22334    0.76309   1.00
C3       0.75074    0.21774    0.77241   1.00
O2       0.69527    0.22192    0.77900   1.00
C3       0.84550    0.24886    0.74946   1.00
H1       0.87207    0.26984    0.73534   1.00
C2       0.78313    0.24705    0.75374   1.00
C5       0.84271    0.04554    0.76112   1.00
H2       0.87093    0.01963    0.76626   1.00
H2       0.88000    0.09511    0.75401   1.00
C5       0.79050    0.00087    0.74534   1.00
H2       0.76098    0.02585    0.74062   1.00
H2       0.75393    -0.04869   0.75255   1.00
C5       0.82518    -0.01046   0.72696   1.00
H2       0.85514    -0.03496   0.73158   1.00
H2       0.85993    0.03877    0.71932   1.00
H2       0.78612    -0.04445   0.71579   1.00
C5       0.99087    0.27842    0.76536   1.00
C5       0.63437    0.16295    0.77301   1.00
H2       0.98984    0.27739    0.78222   1.00
H2       0.99544    0.32740    0.76012   1.00
H2       0.63129    0.11669    0.78007   1.00
H2       0.63088    0.15525    0.75620   1.00
H2       0.51540    0.17103    0.75403   1.00
H2       1.11375    0.30482    0.78630   1.00
H2       1.12586    0.37578    0.77048   1.00
C2       0.92758    0.10518    0.82063   1.00
C3       0.94244    0.17296    0.82368   1.00
O2       0.99684    0.21679    0.83566   1.00
C3       0.88124    0.06652    0.80506   1.00
H1       0.86744    0.01395    0.80267   1.00
C3a      0.91248    0.20087    0.81096   1.00
H1       0.92737    0.25399    0.81274   1.00
C3b      0.85323    0.09509    0.79202   1.00
C4       0.86886    0.16280    0.79487   1.00
O_3      0.93258    0.22157    0.75718   1.00
C5       0.97362    0.22360    0.85490   1.00
H2       0.93795    0.24402    0.85361   1.00
C5       1.03653    0.27361    0.86708   1.00
H2       0.94698    0.17361    0.86293   1.00
H2       1.05159    0.32642    0.86226   1.00
H2       1.07912    0.26503    0.86264   1.00
C5       1.02483    0.26560    0.89020   1.00
H2       0.97889    0.26895    0.89417   1.00
H2       1.06952    0.30640    0.89847   1.00
H2       1.01822    0.21589    0.89566   1.00
C5       1.05297    0.27501    0.75816   1.00
H2       1.06059    0.28783    0.74171   1.00
H2       1.04163    0.22133    0.75964   1.00
C5       1.11739    0.32296    0.77036   1.00
H2       1.16279    0.32450    0.76337   1.00
C5       -0.05804   0.34485    0.46372   1.00
H2       -0.07071   0.38039    0.47162   1.00
H2       -0.00296   0.36458    0.46659   1.00
C5       -0.10123   0.27237    0.47269   1.00
H2       -0.07814   0.26715    0.48700   1.00
H2       -0.10481   0.23365    0.46160   1.00
O_3      0.00469    0.38916    0.35990   1.00
C4       -0.01794   0.47556    0.38542   1.00
C3c      -0.01279   0.45652    0.40532   1.00
H1       0.03534    0.46338    0.41071   1.00
C3d      -0.08086   0.46711    0.37879   1.00
C3       -0.06945   0.42760    0.41846   1.00
O2       -0.05855   0.41800    0.43842   1.00
C3       -0.13770   0.43712    0.39170   1.00
H1       -0.18548   0.42943    0.38571   1.00
C2       -0.13358   0.41689    0.41180   1.00
C5       -0.03840   0.36753    0.34274   1.00
H2       -0.00919   0.37919    0.32828   1.00
H2       -0.07042   0.39223    0.34223   1.00
C5       -0.08461   0.29077    0.34433   1.00
H2       -0.11239   0.27896    0.35906   1.00
H2       -0.05215   0.26660    0.34464   1.00
C5       -0.13502   0.26322    0.32656   1.00
H2       -0.10762   0.27524    0.31180   1.00
H2       -0.16904   0.28554    0.32665   1.00
H2       -0.16734   0.20687    0.32774   1.00
C5       -0.07113   0.54949    0.35689   1.00
C5       -0.07005   0.35113    0.44116   1.00
H2       -0.01630   0.58354    0.36055   1.00
H2       -0.10227   0.56299    0.36694   1.00
H2       -0.03360   0.34330    0.43173   1.00
H2       -0.12279   0.31116    0.43669   1.00
H2       -0.15374   0.26146    0.47668   1.00
H2       0.00906    0.66069    0.32943   1.00
H2       -0.06186   0.66565    0.34050   1.00
C2       0.15040    0.55660    0.34404   1.00
C3       0.14211    0.60052    0.35746   1.00
O2       0.17660    0.66999    0.35415   1.00
C3       0.10404    0.48569    0.34538   1.00
H1       0.11003    0.45056    0.33568   1.00
C3a      0.08740    0.57324    0.37136   1.00
H1       0.07946    0.60787    0.38072   1.00
C3b      0.04842    0.45894    0.35877   1.00
C4       0.03963    0.50276    0.37188   1.00
O_3      -0.08996   0.48022    0.35888   1.00
C5       0.23308    0.70248    0.36732   1.00
H2       0.21678    0.69292    0.38355   1.00
C5       0.26774    0.77904    0.36297   1.00
H2       0.26994    0.68430    0.36457   1.00
H2       0.23850    0.79990    0.37078   1.00
H2       0.26298    0.78523    0.34639   1.00
C5       0.34320    0.81805    0.36953   1.00
H2       0.34744    0.80695    0.38571   1.00
H2       0.36497    0.87403    0.36771   1.00
H2       0.37495    0.80374    0.35998   1.00
C5       -0.08316   0.56118    0.33490   1.00
H2       -0.13915   0.53634    0.33229   1.00
H2       -0.06386   0.53469    0.32498   1.00
C5       -0.04755   0.63753    0.32955   1.00
H2       -0.06319   0.64432    0.31414   1.00
C5       0.39497    1.06407    0.46149   1.00
H2       0.44121    1.07462    0.47019   1.00
H2       0.35729    1.00946    0.46419   1.00
C5       0.36733    1.10988    0.46948   1.00
H2       0.33631    1.08775    0.48344   1.00
H2       0.33515    1.11529    0.45770   1.00
O_3      0.39044    1.00017    0.35807   1.00
C4       0.49348    1.01790    0.38543   1.00
C3c      0.46652    1.01398    0.40489   1.00
H1       0.42304    0.96681    0.40992   1.00
C3d      0.55076    1.07954    0.37928   1.00
C3       0.49432    1.07069    0.41800   1.00
O2       0.47063    1.06067    0.43764   1.00
C3       0.57775    1.13648    0.39215   1.00
H1       0.62016    1.18335    0.38649   1.00
C2       0.55064    1.13362    0.41179   1.00
C5       0.41629    1.04314    0.34095   1.00
H2       0.40003    1.01402    0.32644   1.00
H2       0.47316    1.07302    0.34123   1.00
C5       0.38875    1.09206    0.34151   1.00
H2       0.40336    1.11978    0.35626   1.00
H2       0.33198    1.06171    0.34104   1.00
C5       0.41643    1.14244    0.32374   1.00
H2       0.40244    1.11507    0.30897   1.00
H2       0.47295    1.17441    0.32460   1.00
H2       0.39458    1.17680    0.32416   1.00
C5       0.62436    1.06573    0.35889   1.00
C5       0.41698    1.07531    0.43921   1.00
H2       0.60073    1.01064    0.36266   1.00
H2       0.66775    1.09540    0.36949   1.00
H2       0.37357    1.04018    0.42928   1.00
H2       0.43287    1.12868    0.43449   1.00
H2       0.40985    1.16157    0.47377   1.00
H2       0.65472    0.98183    0.33282   1.00
H2       0.73038    1.05066    0.34467   1.00
C2       0.40651    0.84967    0.34402   1.00
C3       0.45552    0.85555    0.35833   1.00
O2       0.48825    0.81840    0.35603   1.00
C3       0.38485    0.89844    0.34444   1.00
H1       0.34613    0.89435    0.33403   1.00
C3a      0.48280    0.91029    0.37224   1.00
H1       0.52308    0.91628    0.38233   1.00
C3b      0.41366    0.95403    0.35785   1.00
C4       0.46314    0.96040    0.37187   1.00
O_3      0.57600    1.08763    0.35974   1.00
C5       0.45989    0.76183    0.36925   1.00
H2       0.46468    0.77828    0.38542   1.00
C5       0.49950    0.72415    0.36603   1.00
H2       0.40493    0.72688    0.36578   1.00
H2       0.54845    0.75158    0.37452   1.00
H2       0.51304    0.72837    0.34964   1.00
C5       0.45908    0.64873    0.37258   1.00
H2       0.44137    0.64526    0.38849   1.00
H2       0.49150    0.62466    0.37163   1.00
H2       0.41421    0.61851    0.36246   1.00
C5       0.65156    1.07673    0.33729   1.00
H2       0.68517    1.13248    0.33475   1.00
H2       0.60765    1.05925    0.32668   1.00
C5       0.69016    1.03811    0.33305   1.00
H2       0.71523    1.05290    0.31796   1.00
C5       0.66862    0.60476    0.46157   1.00
H2       0.63292    0.55845    0.47025   1.00
H2       0.65159    0.64236    0.46428   1.00
C5       0.74204    0.63247    0.46960   1.00
H2       0.75080    0.66339    0.48357   1.00
H2       0.77968    0.66476    0.45784   1.00
O_3      0.60979    0.60978    0.35813   1.00
C4       0.52443    0.50652    0.38543   1.00
C3c      0.54733    0.53338    0.40490   1.00
H1       0.54353    0.57679    0.40995   1.00
C3d      0.52894    0.44934    0.37926   1.00
C3       0.57623    0.50558    0.41802   1.00
O2       0.58976    0.52916    0.43767   1.00
C3       0.55889    0.42235    0.39213   1.00
H1       0.56347    0.38002    0.38646   1.00
C2       0.58299    0.44937    0.41179   1.00
C5       0.62707    0.58408    0.34101   1.00
H2       0.61426    0.60039    0.32650   1.00
H2       0.60016    0.52721    0.34126   1.00
C5       0.70354    0.61173    0.34161   1.00
H2       0.71661    0.59707    0.35636   1.00
H2       0.72988    0.66850    0.34116   1.00
C5       0.72641    0.58422    0.32384   1.00
H2       0.71310    0.59826    0.30906   1.00
H2       0.70195    0.52770    0.32466   1.00
H2       0.78264    0.60615    0.32428   1.00
C5       0.44170    0.37576    0.35882   1.00
C5       0.65801    0.58288    0.43928   1.00
H2       0.41014    0.39929    0.36258   1.00
H2       0.42798    0.33232    0.36940   1.00
H2       0.66628    0.62632    0.42937   1.00
H2       0.69558    0.56710    0.43457   1.00
H2       0.75127    0.58998    0.47388   1.00
H2       0.32753    0.34537    0.33270   1.00
H2       0.32077    0.26970    0.34452   1.00
C2       0.44318    0.59350    0.34402   1.00
C3       0.40001    0.54437    0.35830   1.00
O2       0.33014    0.51156    0.35596   1.00
C3       0.51363    0.61526    0.34447   1.00
H1       0.54829    0.65408    0.33409   1.00
C3a      0.42746    0.51709    0.37221   1.00
H1       0.39316    0.47672    0.38227   1.00
C3b      0.54041    0.58645    0.35788   1.00
C4       0.49727    0.53686    0.37187   1.00
O_3      0.51192    0.42419    0.35970   1.00
C5       0.30179    0.53977    0.36918   1.00
H2       0.31336    0.53491    0.38536   1.00
C5       0.22452    0.50008    0.36592   1.00
H2       0.32173    0.59474    0.36574   1.00
H2       0.20301    0.45108    0.37439   1.00
H2       0.21530    0.48662    0.34953   1.00
C5       0.18936    0.54035    0.37248   1.00
H2       0.20350    0.55798    0.38839   1.00
H2       0.13289    0.50787    0.37149   1.00
H2       0.20401    0.58527    0.36238   1.00
C5       0.42565    0.34868    0.33720   1.00
H2       0.44789    0.31515    0.33466   1.00
H2       0.45209    0.39266    0.32661   1.00
C5       0.34847    0.31000    0.33292   1.00
H2       0.33830    0.28502    0.31782   1.00
C5       0.31085    0.38712    0.29863   1.00
H2       0.35999    0.43270    0.29440   1.00
H2       0.31942    0.34304    0.29744   1.00
C5       0.29218    0.39488    0.32066   1.00
H2       0.32005    0.38060    0.33173   1.00
H2       0.23635    0.36172    0.32312   1.00
O_3      0.05851    0.24353    0.22463   1.00
C4       0.19236    0.35176    0.21858   1.00
C3c      0.22906    0.35348    0.23595   1.00
H1       0.23653    0.31092    0.23928   1.00
C3d      0.18404    0.40817    0.21436   1.00
C3       0.25576    0.40928    0.24940   1.00
O2       0.29805    0.41108    0.26468   1.00
C3       0.20944    0.46323    0.22792   1.00
H1       0.19972    0.50424    0.22443   1.00
C2       0.24603    0.46546    0.24568   1.00
C5       0.00866    0.25885    0.21772   1.00
H2       -0.02742   0.22014    0.20675   1.00
H2       0.03274    0.30982    0.21021   1.00
C5       -0.03154   0.25959    0.23607   1.00
H2       0.00476    0.29689    0.24728   1.00
H2       -0.05587   0.20829    0.24333   1.00
C5       -0.08551   0.27831    0.22998   1.00
H2       -0.12165   0.24154    0.21868   1.00
H2       -0.06110   0.33050    0.22338   1.00
H2       -0.11537   0.27713    0.24352   1.00
C5       0.18425    0.43054    0.18061   1.00
C5       0.25970    0.38169    0.28250   1.00
H2       0.20525    0.39711    0.17638   1.00
H2       0.22745    0.48372    0.18254   1.00
H2       0.22093    0.32713    0.27975   1.00
H2       0.23184    0.40807    0.28775   1.00
H2       0.30715    0.44897    0.32407   1.00
H2       0.17407    0.38962    0.13868   1.00
H2       0.22322    0.48157    0.14199   1.00
C2       0.10338    0.18034    0.17834   1.00
C3       0.17180    0.23229    0.17565   1.00
O2       0.20507    0.23774    0.15762   1.00
C3       0.06677    0.18492    0.19508   1.00
H1       0.01489    0.14510    0.19786   1.00
C3a      0.20123    0.28784    0.18925   1.00
H1       0.25236    0.32911    0.18632   1.00
C3b      0.09547    0.24130    0.20820   1.00
C4       0.16314    0.29342    0.20533   1.00
O_3      0.14399    0.40680    0.19831   1.00
C5       0.24924    0.21106    0.15981   1.00
H2       0.28831    0.23883    0.17180   1.00
C5       0.28486    0.22000    0.13937   1.00
H2       0.22023    0.15586    0.16382   1.00
H2       0.32712    0.27377    0.13814   1.00
H2       0.24744    0.21262    0.12727   1.00
C5       0.31205    0.17026    0.13645   1.00
H2       0.34504    0.17454    0.14949   1.00
H2       0.34249    0.18209    0.12224   1.00
H2       0.26943    0.11639    0.13506   1.00
C5       0.13849    0.42933    0.16351   1.00
H2       0.12713    0.47125    0.16609   1.00
H2       0.08906    0.38052    0.16447   1.00
C5       0.17114    0.43609    0.14253   1.00
H2       0.13979    0.44218    0.13065   1.00
C5       0.39961    0.57890    0.21806   1.00
H2       0.40699    0.56441    0.23355   1.00
H2       0.41911    0.55441    0.20748   1.00
C5       0.32277    0.55159    0.21432   1.00
H2       0.29643    0.49677    0.20995   1.00
H2       0.31596    0.58129    0.20200   1.00
O_3      0.64153    0.89871    0.18197   1.00
C4       0.64911    0.84049    0.21890   1.00
C3c      0.59876    0.77133    0.21783   1.00
H1       0.60300    0.73878    0.20663   1.00
C3d      0.64314    0.88180    0.23380   1.00
C3       0.54193    0.74331    0.23090   1.00
O2       0.49928    0.67373    0.23062   1.00
C3       0.58595    0.85436    0.24658   1.00
H1       0.58234    0.88857    0.25729   1.00
C2       0.53418    0.78471    0.24556   1.00
C5       0.65037    0.96459    0.18444   1.00
H2       0.69207    1.00314    0.17469   1.00
H2       0.66230    0.98178    0.20054   1.00
C5       0.58400    0.96123    0.17841   1.00
H2       0.54200    0.92134    0.18776   1.00
H2       0.57293    0.94464    0.16227   1.00
C5       0.58836    1.03049    0.18134   1.00
H2       0.63051    1.07067    0.17216   1.00
H2       0.59706    1.04600    0.19757   1.00
H2       0.53993    1.02743    0.17643   1.00
C5       0.74489    0.96392    0.24668   1.00
C5       0.44466    0.65658    0.21707   1.00
H2       0.77291    0.93962    0.24021   1.00
H2       0.72895    0.94486    0.26247   1.00
H2       0.46448    0.67289    0.20135   1.00
H2       0.41444    0.68169    0.22111   1.00
H2       0.29691    0.55480    0.22838   1.00
H2       0.89171    1.04499    0.24441   1.00
H2       0.85981    1.03474    0.27022   1.00
C2       0.81900    0.93040    0.17812   1.00
C3       0.82266    0.89828    0.19604   1.00
O2       0.88482    0.90984    0.20320   1.00
C3       0.75720    0.92898    0.17362   1.00
H1       0.75217    0.95156    0.15976   1.00
C3a      0.76590    0.86741    0.20918   1.00
H1       0.77082    0.84646    0.22340   1.00
C3b      0.70161    0.90016    0.18702   1.00
C4       0.70568    0.86918    0.20499   1.00
O_3      0.68853    0.95124    0.23449   1.00
C5       0.89392    0.85414    0.19846   1.00
H2       0.85295    0.80591    0.20536   1.00
C5       0.96310    0.87031    0.20716   1.00
H2       0.89380    0.84698    0.18173   1.00
H2       0.95699    0.85911    0.22371   1.00
H2       0.99814    0.92629    0.20562   1.00
C5       0.99324    0.83052    0.19658   1.00
H2       0.95540    0.77508    0.19687   1.00
H2       1.04051    0.83920    0.20440   1.00
H2       1.00778    0.84763    0.18053   1.00
C5       0.79264    1.04077    0.24729   1.00
H2       0.76888    1.06381    0.25686   1.00
H2       0.79682    1.06112    0.23165   1.00
C5       0.86379    1.05979    0.25536   1.00
H2       0.89482    1.11585    0.25760   1.00
C5       0.39729    0.77747    0.21087   1.00
H2       0.42183    0.80585    0.22501   1.00
H2       0.42053    0.81495    0.19834   1.00
C5       0.41247    0.71846    0.20815   1.00
H2       0.46401    0.73743    0.20147   1.00
H2       0.37364    0.67863    0.19803   1.00
O_3      0.07771    0.73055    0.18625   1.00
C4       0.15967    0.80875    0.21889   1.00
C3c      0.22442    0.81665    0.21541   1.00
H1       0.25351    0.84482    0.20229   1.00
C3d      0.12302    0.77269    0.23623   1.00
C3       0.25221    0.78774    0.22853   1.00
O2       0.31899    0.80459    0.22554   1.00
C3       0.14998    0.74274    0.24911   1.00
H1       0.11897    0.71351    0.26182   1.00
C2       0.21507    0.74960    0.24569   1.00
C5       0.01086    0.68216    0.19232   1.00
H2       -0.02860   0.68719    0.18361   1.00
H2       0.00299    0.68730    0.20879   1.00
C5       0.00116    0.61172    0.18842   1.00
H2       0.04178    0.60738    0.19667   1.00
H2       0.00850    0.60693    0.17191   1.00
C5       -0.06970   0.55578    0.19530   1.00
H2       -0.11051   0.56010    0.18723   1.00
H2       -0.07620   0.55906    0.21192   1.00
H2       -0.07639   0.50468    0.19192   1.00
C5       0.05859    0.81355    0.25037   1.00
C5       0.32167    0.75530    0.21301   1.00
H2       0.08508    0.86192    0.24160   1.00
H2       0.08458    0.82140    0.26532   1.00
H2       0.29922    0.75409    0.19784   1.00
H2       0.29272    0.70270    0.21951   1.00
H2       0.41254    0.69497    0.22306   1.00
H2       -0.00584   0.89584    0.24801   1.00
H2       0.01370    0.88372    0.27389   1.00
C2       0.06919    0.88883    0.17835   1.00
C3       0.11305    0.93022    0.19396   1.00
O2       0.11404    0.98939    0.19959   1.00
C3       0.05895    0.82225    0.17592   1.00
H1       0.02709    0.78993    0.16379   1.00
C3a      0.14389    0.90397    0.20697   1.00
H1       0.17420    0.93489    0.21955   1.00
C3b      0.08795    0.79554    0.18928   1.00
C4       0.13069    0.83637    0.20499   1.00
O_3      0.05701    0.75908    0.23951   1.00
C5       0.17169    1.04661    0.19130   1.00
H2       0.21997    1.04963    0.19660   1.00
C5       0.16970    1.10987    0.19848   1.00
H2       0.17044    1.04473    0.17440   1.00
H2       0.18928    1.12148    0.21432   1.00
H2       0.11516    1.09623    0.19913   1.00
C5       0.21069    1.17234    0.18468   1.00
H2       0.26357    1.18191    0.18292   1.00
H2       0.21282    1.21861    0.19130   1.00
H2       0.18642    1.16464    0.16940   1.00
C5       -0.01490   0.79578    0.25395   1.00
H2       -0.03779   0.75458    0.26555   1.00
H2       -0.04395   0.77436    0.23962   1.00
C5       -0.01993   0.85827    0.26063   1.00
H2       -0.07318   0.84214    0.26512   1.00
C5       1.04116    0.60260    0.53008   1.00
H2       1.08239    0.65597    0.53266   1.00
H2       0.99293    0.60418    0.52973   1.00
C5       1.05283    0.57698    0.50954   1.00
H2       1.03389    0.59509    0.49675   1.00
H2       1.02575    0.52024    0.50937   1.00
O_3      0.92285    0.38530    0.61349   1.00
C4       1.01837    0.52578    0.61474   1.00
C3c      1.01537    0.55149    0.59562   1.00
H1       0.96905    0.55028    0.59090   1.00
C3d      1.07952    0.52874    0.62072   1.00
C3       1.07130    0.57816    0.58222   1.00
O2       1.06751    0.60989    0.56487   1.00
C3       1.13487    0.55405    0.60726   1.00
H1       1.17986    0.55307    0.61222   1.00
C2       1.13244    0.57958    0.58778   1.00
C5       0.94623    0.34557    0.62341   1.00
H2       0.90995    0.31190    0.63528   1.00
H2       0.99677    0.37853    0.63072   1.00
C5       0.95347    0.30103    0.60751   1.00
H2       0.98823    0.33457    0.59535   1.00
H2       0.90261    0.26791    0.60044   1.00
C5       0.98111    0.25772    0.61692   1.00
H2       0.94689    0.22444    0.62917   1.00
H2       1.03291    0.29075    0.62336   1.00
H2       0.98463    0.22441    0.60516   1.00
C5       1.10228    0.54748    0.65455   1.00
C5       1.04235    0.56267    0.54867   1.00
H2       1.06348    0.56330    0.65678   1.00
H2       1.15266    0.59386    0.65157   1.00
H2       0.98983    0.52047    0.55220   1.00
H2       1.07469    0.53910    0.54565   1.00
H2       1.10835    0.59726    0.50665   1.00
H2       1.05890    0.55083    0.69553   1.00
H2       1.14974    0.60789    0.69178   1.00
C2       0.84757    0.43709    0.65521   1.00
C3       0.89281    0.50820    0.65537   1.00
O2       0.89320    0.54727    0.67148   1.00
C3       0.85831    0.39710    0.64080   1.00
H1       0.82357    0.34278    0.63993   1.00
C3a      0.94809    0.53723    0.64167   1.00
H1       0.98448    0.59116    0.64276   1.00
C3b      0.91456    0.42582    0.62763   1.00
C4       0.96009    0.49636    0.62802   1.00
O_3      1.08343    0.49944    0.63872   1.00
C5       0.85839    0.58223    0.66627   1.00
H2       0.88262    0.61648    0.65296   1.00
C5       0.86208    0.62504    0.68470   1.00
H2       0.80397    0.54574    0.66257   1.00
H2       0.91313    0.67207    0.68490   1.00
H2       0.85931    0.59544    0.69852   1.00
C5       0.80504    0.64340    0.68491   1.00
H2       0.80517    0.66808    0.67033   1.00
H2       0.81275    0.67916    0.69756   1.00
H2       0.75386    0.59720    0.68732   1.00
C5       1.10716    0.51351    0.67391   1.00
H2       1.15354    0.50845    0.67299   1.00
H2       1.06243    0.46086    0.67450   1.00
C5       1.10893    0.55354    0.69300   1.00
H2       1.11964    0.53139    0.70659   1.00
C5       0.57223    -0.04497   0.53148   1.00
H2       0.58147    -0.08783   0.53467   1.00
H2       0.62321    0.00189    0.53163   1.00
C5       0.53867    -0.05513   0.51035   1.00
H2       0.57773    -0.03769   0.49812   1.00
H2       0.51129    -0.02586   0.50936   1.00
O_3      0.46884    0.08178    0.61174   1.00
C4       0.50735    -0.01839   0.61475   1.00
C3c      0.53848    -0.01689   0.59618   1.00
H1       0.58548    0.02823    0.59191   1.00
C3d      0.44665    -0.07804   0.62017   1.00
C3       0.50926    -0.07278   0.58277   1.00
O2       0.54677    -0.07080   0.56609   1.00
C3       0.41675    -0.13328   0.60667   1.00
H1       0.36893    -0.17700   0.61116   1.00
C2       0.44716    -0.13233   0.58774   1.00
C5       0.40470    0.06111    0.62065   1.00
H2       0.40723    0.09822    0.63222   1.00
H2       0.38381    0.01027    0.62809   1.00
C5       0.35655    0.05627    0.60385   1.00
H2       0.35550    0.02064    0.59201   1.00
H2       0.37757    0.10744    0.59666   1.00
C5       0.28465    0.03164    0.61214   1.00
H2       0.28539    0.06672    0.62407   1.00
H2       0.26268    -0.02045   0.61869   1.00
H2       0.25057    0.02986    0.59972   1.00
C5       0.43615    -0.10096   0.65409   1.00
C5       0.52923    -0.04399   0.54926   1.00
H2       0.49090    -0.06400   0.65699   1.00
H2       0.43012    -0.15240   0.65150   1.00
H2       0.54142    0.00932    0.55249   1.00
H2       0.47370    -0.07427   0.54547   1.00
H2       0.50200    -0.11023   0.50732   1.00
H2       0.47726    -0.05869   0.69549   1.00
H2       0.44030    -0.15006   0.69195   1.00
C2       0.58955    0.15262    0.65514   1.00
C3       0.61231    0.10494    0.65622   1.00
O2       0.64731    0.10265    0.67305   1.00
C3       0.54202    0.14415    0.63987   1.00
H1       0.52493    0.18074    0.63831   1.00
C3a      0.58612    0.04957    0.64255   1.00
H1       0.60110    0.01140    0.64431   1.00
C3b      0.51443    0.08785    0.62672   1.00
C4       0.53631    0.03992    0.62801   1.00
O_3      0.41130    -0.08023   0.63754   1.00
C5       0.71776    0.13471    0.66886   1.00
H2       0.72837    0.10929    0.65599   1.00
C5       0.75263    0.12902    0.68805   1.00
H2       0.73861    0.18953    0.66500   1.00
H2       0.74604    0.07692    0.68865   1.00
H2       0.72449    0.13331    0.70131   1.00
C5       0.82884    0.18360    0.68918   1.00
H2       0.85503    0.18213    0.67509   1.00
H2       0.85367    0.17433    0.70241   1.00
H2       0.83596    0.23580    0.69120   1.00
C5       0.39504    -0.10387   0.67271   1.00
H2       0.34278    -0.14876   0.67124   1.00
H2       0.38958    -0.05763   0.67273   1.00
C5       0.42906    -0.10754   0.69252   1.00
H2       0.39441    -0.11675   0.70556   1.00
C5       0.38330    0.42814    0.53142   1.00
H2       0.33116    0.41879    0.53460   1.00
H2       0.37928    0.37720    0.53156   1.00
C5       0.40678    0.46183    0.51032   1.00
H2       0.38530    0.42284    0.49806   1.00
H2       0.46344    0.48929    0.50936   1.00
O_3      0.61301    0.53140    0.61180   1.00
C4       0.47425    0.49264    0.61475   1.00
C3c      0.44476    0.46160    0.59616   1.00
H1       0.44299    0.41467    0.59187   1.00
C3d      0.47516    0.55326    0.62019   1.00
C3       0.41809    0.49082    0.58275   1.00
O2       0.38269    0.45338    0.56604   1.00
C3       0.44982    0.58317    0.60669   1.00
H1       0.45382    0.63093    0.61120   1.00
C2       0.42050    0.55285    0.58774   1.00
C5       0.65635    0.59550    0.62075   1.00
H2       0.69090    0.59297    0.63232   1.00
H2       0.62629    0.61628    0.62818   1.00
C5       0.69970    0.64379    0.60398   1.00
H2       0.66516    0.64484    0.59213   1.00
H2       0.72995    0.62288    0.59679   1.00
C5       0.74683    0.71566    0.61231   1.00
H2       0.78114    0.71491    0.62425   1.00
H2       0.71662    0.73751    0.61886   1.00
H2       0.77918    0.74984    0.59991   1.00
C5       0.46251    0.56354    0.65411   1.00
C5       0.42715    0.47108    0.54923   1.00
H2       0.44479    0.50879    0.65699   1.00
H2       0.41707    0.56950    0.65151   1.00
H2       0.46830    0.45895    0.55247   1.00
H2       0.45234    0.52662    0.54547   1.00
H2       0.38829    0.49845    0.50729   1.00
H2       0.46351    0.52223    0.69550   1.00
H2       0.40900    0.55908    0.69195   1.00
C2       0.56305    0.41045    0.65514   1.00
C3       0.49258    0.38757    0.65619   1.00
O2       0.45523    0.35245    0.67300   1.00
C3       0.60215    0.45810    0.63990   1.00
H1       0.65586    0.47528    0.63836   1.00
C3a      0.46341    0.41377    0.64252   1.00
H1       0.41023    0.39870    0.64426   1.00
C3b      0.57344    0.48568    0.62675   1.00
C4       0.50360    0.46369    0.62801   1.00
O_3      0.50817    0.58854    0.63758   1.00
C5       0.41696    0.28201    0.66877   1.00
H2       0.38100    0.27143    0.65588   1.00
C5       0.37631    0.24699    0.68794   1.00
H2       0.45102    0.26127    0.66492   1.00
H2       0.33075    0.25349    0.68852   1.00
H2       0.40864    0.27509    0.70121   1.00
C5       0.35479    0.17081    0.68903   1.00
H2       0.32724    0.14467    0.67493   1.00
H2       0.32063    0.14586    0.70224   1.00
H2       0.39992    0.16377    0.69106   1.00
C5       0.50056    0.60457    0.67276   1.00
H2       0.50786    0.65681    0.67131   1.00
H2       0.55231    0.61012    0.67279   1.00
C5       0.46278    0.57040    0.69254   1.00
H2       0.48811    0.60499    0.70560   1.00
C5       0.30933    -0.30752   0.12999   1.00
H2       0.26722    -0.31468   0.11980   1.00
H2       0.29377    -0.30155   0.14549   1.00
C5       0.31776    -0.37118   0.12895   1.00
H2       0.27967    -0.41265   0.13882   1.00
H2       0.36996    -0.35783   0.13393   1.00
O_3      0.59481    0.01699    0.13606   1.00
C4       0.47443    -0.01774   0.11451   1.00
C3c      0.42602    -0.08337   0.12113   1.00
H1       0.40930    -0.09129   0.13676   1.00
C3d      0.49480    -0.00834   0.09402   1.00
C3       0.39921    -0.13975   0.10790   1.00
O2       0.34611    -0.20059   0.11479   1.00
C3       0.46918    -0.06459   0.08090   1.00
H1       0.48812    -0.05530   0.06550   1.00
C2       0.42075    -0.13143   0.08740   1.00
C5       0.65392    0.05223    0.12399   1.00
H2       0.69200    0.10187    0.13085   1.00
H2       0.64104    0.06243    0.10852   1.00
C5       0.68606    0.00749    0.12215   1.00
H2       0.64738    -0.04283   0.11583   1.00
H2       0.69928    -0.00184   0.13766   1.00
C5       0.74961    0.04104    0.10861   1.00
H2       0.78826    0.09153    0.11476   1.00
H2       0.73607    0.04821    0.09293   1.00
H2       0.77325    0.00830    0.10781   1.00
C5       0.51745    0.09410    0.08089   1.00
C5       0.37168    -0.24088   0.12314   1.00
H2       0.49224    0.10450    0.09377   1.00
H2       0.47936    0.06879    0.06850   1.00
H2       0.40535    -0.21420   0.13636   1.00
H2       0.40243    -0.25154   0.11198   1.00
H2       0.30879    -0.39248   0.11323   1.00
H2       0.54547    0.23234    0.08628   1.00
H2       0.50660    0.19653    0.06189   1.00
C2       0.56350    0.15421    0.15454   1.00
C3       0.50119    0.13557    0.14472   1.00
O2       0.47719    0.18078    0.14374   1.00
C3       0.59339    0.11293    0.15158   1.00
H1       0.64015    0.12480    0.15930   1.00
C3a      0.47137    0.07792    0.13191   1.00
H1       0.42573    0.06659    0.12360   1.00
C3b      0.56475    0.05692    0.13833   1.00
C4       0.50336    0.03906    0.12833   1.00
O_3      0.54605    0.05416    0.08711   1.00
C5       0.42493    0.16327    0.15814   1.00
H2       0.38132    0.11074    0.15545   1.00
C5       0.40039    0.21483    0.15586   1.00
H2       0.44432    0.16596    0.17385   1.00
H2       0.36519    0.19956    0.14263   1.00
H2       0.44563    0.26491    0.15193   1.00
C5       0.36524    0.22108    0.17511   1.00
H2       0.32364    0.16979    0.17972   1.00
H2       0.34309    0.25455    0.17231   1.00
H2       0.40231    0.24463    0.18789   1.00
C5       0.57536    0.16163    0.07309   1.00
H2       0.59272    0.15244    0.05822   1.00
H2       0.61911    0.17942    0.08378   1.00
C5       0.55392    0.21605    0.07110   1.00
H2       0.59482    0.26206    0.06341   1.00
C5       1.08165    0.37901    0.04503   1.00
H2       1.08710    0.41949    0.03440   1.00
H2       1.02880    0.33598    0.04297   1.00
C5       1.13393    0.35659    0.03947   1.00
H2       1.11493    0.31960    0.02666   1.00
H2       1.14346    0.33239    0.05281   1.00
O_3      1.01154    0.40711    0.14622   1.00
C4       1.01782    0.49340    0.11454   1.00
C3c      1.01773    0.46041    0.09649   1.00
H1       0.97357    0.41213    0.09257   1.00
C3d      1.07548    0.55675    0.11922   1.00
C3       1.07454    0.48840    0.08342   1.00
O2       1.06758    0.45752    0.06490   1.00
C3       1.13263    0.58411    0.10643   1.00
H1       1.17659    0.63162    0.11101   1.00
C2       1.13368    0.55106    0.08823   1.00
C5       1.05316    0.44340    0.16287   1.00
H2       1.02402    0.43028    0.17738   1.00
H2       1.07746    0.49957    0.16050   1.00
C5       1.10850    0.42443    0.16472   1.00
H2       1.13639    0.43576    0.15003   1.00
H2       1.08369    0.36836    0.16727   1.00
C5       1.15771    0.46365    0.18209   1.00
H2       1.13012    0.45295    0.19679   1.00
H2       1.18427    0.51955    0.17922   1.00
H2       1.19690    0.44801    0.18350   1.00
C5       1.05075    0.63060    0.13554   1.00
C5       1.09004    0.40955    0.06627   1.00
H2       0.99561    0.60000    0.13173   1.00
H2       1.07687    0.67028    0.12360   1.00
H2       1.05818    0.36886    0.07742   1.00
H2       1.14432    0.43317    0.07135   1.00
H2       1.18327    0.40091    0.03430   1.00
H2       0.95727    0.65755    0.15802   1.00
H2       1.02070    0.73165    0.14416   1.00
C2       0.84978    0.40725    0.15603   1.00
C3       0.85011    0.44744    0.13961   1.00
O2       0.80651    0.47345    0.13949   1.00
C3       0.90420    0.39372    0.15773   1.00
H1       0.90456    0.36168    0.16982   1.00
C3a      0.90492    0.47436    0.12574   1.00
H1       0.90637    0.50821    0.11393   1.00
C3b      0.95970    0.42236    0.14429   1.00
C4       0.96048    0.46316    0.12816   1.00
O_3      1.08019    0.58876    0.13752   1.00
C5       0.75070    0.43456    0.12652   1.00
H2       0.76796    0.43479    0.11064   1.00
C5       0.70561    0.46719    0.12696   1.00
H2       0.72069    0.38072    0.13184   1.00
H2       0.72858    0.51251    0.11679   1.00
H2       0.70784    0.48667    0.14262   1.00
C5       0.63121    0.41734    0.12076   1.00
H2       0.63030    0.39431    0.10580   1.00
H2       0.60153    0.44428    0.11961   1.00
H2       0.60472    0.37603    0.13228   1.00
C5       1.05824    0.66561    0.15585   1.00
H2       1.11283    0.70499    0.15797   1.00
H2       1.04509    0.62709    0.16810   1.00
C5       1.01227    0.69758    0.15732   1.00
H2       1.02423    0.72858    0.17138   1.00
C5       0.60438    0.66792    0.03831   1.00
H2       0.55796    0.63223    0.02967   1.00
H2       0.64186    0.65074    0.03559   1.00
C5       0.63218    0.74130    0.03023   1.00
H2       0.66296    0.74987    0.01624   1.00
H2       0.66462    0.77900    0.04196   1.00
O_3      0.61009    0.60986    0.14178   1.00
C4       0.50652    0.52443    0.11457   1.00
C3c      0.53325    0.54713    0.09507   1.00
H1       0.57654    0.54316    0.09001   1.00
C3d      0.44947    0.52915    0.12077   1.00
C3       0.50545    0.57603    0.08196   1.00
O2       0.52887    0.58935    0.06228   1.00
C3       0.42249    0.55910    0.10789   1.00
H1       0.38028    0.56384    0.11358   1.00
C2       0.44937    0.58300    0.08821   1.00
C5       0.58461    0.62737    0.15890   1.00
H2       0.60098    0.61462    0.17341   1.00
H2       0.52775    0.60057    0.15869   1.00
C5       0.61242    0.70387    0.15825   1.00
H2       0.59769    0.71686    0.14350   1.00
H2       0.66919    0.73010    0.15866   1.00
C5       0.58515    0.72698    0.17603   1.00
H2       0.59926    0.71374    0.19080   1.00
H2       0.52864    0.70263    0.17524   1.00
H2       0.60720    0.78322    0.17555   1.00
C5       0.37594    0.44215    0.14129   1.00
C5       0.58268    0.65754    0.06062   1.00
H2       0.39932    0.41047    0.13752   1.00
H2       0.33243    0.42844    0.13073   1.00
H2       0.62617    0.66579    0.07050   1.00
H2       0.56706    0.69524    0.06532   1.00
H2       0.58973    0.75062    0.02597   1.00
H2       0.34550    0.32814    0.16748   1.00
H2       0.26981    0.32146    0.15570   1.00
C2       0.59352    0.44319    0.15598   1.00
C3       0.54422    0.39998    0.14174   1.00
O2       0.51128    0.33012    0.14413   1.00
C3       0.61543    0.51367    0.15548   1.00
H1       0.65437    0.54836    0.16583   1.00
C3a      0.51693    0.42742    0.12784   1.00
H1       0.47644    0.39310    0.11781   1.00
C3b      0.58662    0.54045    0.14207   1.00
C4       0.53686    0.49727    0.12813   1.00
O_3      0.42448    0.51233    0.14034   1.00
C5       0.53928    0.30155    0.13091   1.00
H2       0.53432    0.31302    0.11473   1.00
C5       0.49946    0.22431    0.13423   1.00
H2       0.59426    0.32140    0.13431   1.00
H2       0.45040    0.20283    0.12579   1.00
H2       0.48614    0.21525    0.15063   1.00
C5       0.53954    0.18895    0.12767   1.00
H2       0.55705    0.20292    0.11174   1.00
H2       0.50696    0.13250    0.12870   1.00
H2       0.58452    0.20358    0.13774   1.00
C5       0.34903    0.42634    0.16293   1.00
H2       0.31562    0.44872    0.16547   1.00
H2       0.39311    0.45278    0.17348   1.00
C5       0.31023    0.34919    0.16726   1.00
H2       0.28538    0.33920    0.18238   1.00
C5       0.35842    0.65744    0.70303   1.00
H2       0.34901    0.61281    0.71239   1.00
H2       0.36342    0.64400    0.68717   1.00
C5       0.29710    0.66944    0.70495   1.00
H2       0.25476    0.63451    0.69474   1.00
H2       0.31305    0.72312    0.70094   1.00
O_3      0.68955    0.93315    0.69949   1.00
C4       0.64888    0.80772    0.71882   1.00
C3c      0.58249    0.76296    0.71190   1.00
H1       0.57396    0.74913    0.69604   1.00
C3d      0.65903    0.82433    0.73960   1.00
C3       0.52618    0.73620    0.72516   1.00
O2       0.46417    0.68641    0.71782   1.00
C3       0.60291    0.79880    0.75277   1.00
H1       0.61290    0.81488    0.76844   1.00
C2       0.53533    0.75407    0.74598   1.00
C5       0.72702    0.98958    0.71240   1.00
H2       0.77740    1.02711    0.70582   1.00
H2       0.73609    0.97298    0.72746   1.00
C5       0.68541    1.02469    0.71541   1.00
H2       0.63435    0.98667    0.72145   1.00
H2       0.67721    1.04160    0.70031   1.00
C5       0.72149    1.08549    0.72991   1.00
H2       0.77271    1.12343    0.72403   1.00
H2       0.72757    1.06834    0.74519   1.00
H2       0.69104    1.11140    0.73156   1.00
C5       0.75964    0.83945    0.75206   1.00
C5       0.42657    0.71640    0.71047   1.00
H2       0.76839    0.81537    0.73856   1.00
H2       0.73284    0.79953    0.76389   1.00
H2       0.45445    0.75185    0.69769   1.00
H2       0.41790    0.74647    0.72237   1.00
H2       0.27582    0.65856    0.72068   1.00
H2       0.89543    0.86145    0.74576   1.00
H2       0.85831    0.81914    0.76967   1.00
C2       0.82107    0.89680    0.67887   1.00
C3       0.79938    0.83215    0.68755   1.00
O2       0.84189    0.80485    0.68753   1.00
C3       0.78268    0.92919    0.68291   1.00
H1       0.79690    0.97789    0.67607   1.00
C3a      0.74166    0.80245    0.70034   1.00
H1       0.72803    0.75476    0.70779   1.00
C3b      0.72661    0.90053    0.69614   1.00
C4       0.70574    0.83675    0.70501   1.00
O_3      0.72255    0.87213    0.74690   1.00
C5       0.82203    0.75488    0.67224   1.00
H2       0.76857    0.71261    0.67458   1.00
C5       0.87066    0.72643    0.67343   1.00
H2       0.82584    0.77749    0.65694   1.00
H2       0.85376    0.68877    0.68605   1.00
H2       0.92180    0.76930    0.67777   1.00
C5       0.87486    0.69357    0.65340   1.00
H2       0.82276    0.65463    0.64847   1.00
H2       0.90607    0.66849    0.65536   1.00
H2       0.89990    0.73260    0.64118   1.00
C5       0.82841    0.89362    0.76034   1.00
H2       0.82038    0.90921    0.77565   1.00
H2       0.84822    0.93944    0.75040   1.00
C5       0.88000    0.86825    0.76128   1.00
H2       0.92692    0.90620    0.76931   1.00
C5       0.42790    0.59149    0.72136   1.00
H2       0.40881    0.62805    0.72054   1.00
H2       0.44167    0.58602    0.70558   1.00
C5       0.49150    0.62085    0.73523   1.00
H2       0.53799    0.65809    0.72682   1.00
H2       0.49905    0.57891    0.74101   1.00
O_3      0.18786    0.24519    0.72400   1.00
C4       0.15901    0.35154    0.71866   1.00
C3c      0.22188    0.41013    0.71454   1.00
H1       0.24931    0.41259    0.70085   1.00
C3d      0.12363    0.34977    0.73644   1.00
C3       0.25077    0.46581    0.72803   1.00
O2       0.30812    0.52447    0.72181   1.00
C3       0.15287    0.40458    0.75010   1.00
H1       0.12499    0.39991    0.76388   1.00
C2       0.21675    0.46391    0.74627   1.00
C5       0.14951    0.20034    0.73984   1.00
H2       0.12042    0.14625    0.73468   1.00
H2       0.11259    0.21423    0.74635   1.00
C5       0.19915    0.20614    0.75628   1.00
H2       0.22957    0.26054    0.76103   1.00
H2       0.23535    0.19155    0.74965   1.00
C5       0.16133    0.16063    0.77447   1.00
H2       0.13047    0.10629    0.76981   1.00
H2       0.12693    0.17668    0.78153   1.00
H2       0.19853    0.16440    0.78614   1.00
C5       0.00789    0.29199    0.73299   1.00
C5       0.36721    0.52422    0.72861   1.00
H2       0.01084    0.29191    0.71616   1.00
H2       0.00446    0.33738    0.73786   1.00
H2       0.36944    0.48013    0.72190   1.00
H2       0.36853    0.51984    0.74549   1.00
H2       0.48637    0.64922    0.74836   1.00
H2       -0.11374   0.19824    0.71103   1.00
H2       -0.12525   0.25863    0.72627   1.00
C2       0.07221    0.17759    0.67938   1.00
C3       0.05996    0.23199    0.67577   1.00
O2       0.00762    0.22319    0.66312   1.00
C3       0.11614    0.18376    0.69552   1.00
H1       0.12795    0.14379    0.69836   1.00
C3a      0.09001    0.28982    0.68850   1.00
H1       0.07704    0.32928    0.68626   1.00
C3b      0.14419    0.24035    0.70856   1.00
C4       0.13113    0.29392    0.70514   1.00
O_3      0.06414    0.29134    0.74196   1.00
C5       0.03370    0.25284    0.64401   1.00
H2       0.07061    0.30863    0.64541   1.00
C5       -0.02704   0.24199    0.63106   1.00
H2       0.05988    0.22808    0.63651   1.00
H2       -0.04096   0.28098    0.63542   1.00
H2       -0.07120   0.19148    0.63526   1.00
C5       -0.01278   0.24525    0.60810   1.00
H2       0.03454    0.29371    0.60444   1.00
H2       -0.05578   0.24290    0.59925   1.00
H2       -0.00727   0.20112    0.60303   1.00
C5       -0.05625   0.22761    0.73978   1.00
H2       -0.06542   0.23323    0.75607   1.00
H2       -0.04653   0.18409    0.73873   1.00
C5       -0.11861   0.21317    0.72681   1.00
H2       -0.16555   0.17022    0.73347   1.00
C5       0.17269    0.57591    0.71940   1.00
H2       0.22869    0.59674    0.71910   1.00
H2       0.15544    0.56355    0.70340   1.00
C5       0.13861    0.51068    0.73260   1.00
H2       0.13188    0.46572    0.72382   1.00
H2       0.08786    0.50081    0.73797   1.00
O_3      0.05542    0.80721    0.72286   1.00
C4       0.19252    0.84101    0.71867   1.00
C3c      0.19096    0.77968    0.71410   1.00
H1       0.16815    0.75347    0.70007   1.00
C3d      0.22336    0.87486    0.73690   1.00
C3       0.21772    0.75073    0.72759   1.00
O2       0.22189    0.69525    0.72101   1.00
C3       0.24888    0.84551    0.75054   1.00
H1       0.26987    0.87209    0.76466   1.00
C2       0.24705    0.78313    0.74626   1.00
C5       0.04557    0.84275    0.73888   1.00
H2       0.01966    0.87098    0.73375   1.00
H2       0.09515    0.88004    0.74600   1.00
C5       0.00090    0.79055    0.75467   1.00
H2       0.02587    0.76103    0.75939   1.00
H2       -0.04867   0.75399    0.74746   1.00
C5       -0.01041   0.82525    0.77305   1.00
H2       -0.03490   0.85522    0.76843   1.00
H2       0.03883    0.86000    0.78069   1.00
H2       -0.04439   0.78620    0.78422   1.00
C5       0.27845    0.99088    0.73464   1.00
C5       0.16292    0.63436    0.72699   1.00
H2       0.27742    0.98983    0.71777   1.00
H2       0.32743    0.99544    0.73987   1.00
H2       0.11665    0.63128    0.71995   1.00
H2       0.15522    0.63089    0.74381   1.00
H2       0.17099    0.51539    0.74599   1.00
H2       0.30486    1.11375    0.71368   1.00
H2       0.37582    1.12586    0.72950   1.00
C2       0.10518    0.92759    0.67937   1.00
C3       0.17296    0.94243    0.67632   1.00
O2       0.21678    0.99681    0.66433   1.00
C3       0.06653    0.88125    0.69494   1.00
H1       0.01396    0.86747    0.69733   1.00
C3a      0.20086    0.91247    0.68904   1.00
H1       0.25398    0.92735    0.68725   1.00
C3b      0.09510    0.85325    0.70799   1.00
C4       0.16280    0.86886    0.70513   1.00
O_3      0.22160    0.93260    0.74282   1.00
C5       0.22358    0.97358    0.64509   1.00
H2       0.24399    0.93791    0.64638   1.00
C5       0.27358    1.03648    0.63291   1.00
H2       0.17358    0.94694    0.63706   1.00
H2       0.32639    1.05153    0.63773   1.00
H2       0.26502    1.07907    0.63735   1.00
C5       0.26556    1.02477    0.60979   1.00
H2       0.26889    0.97882    0.60583   1.00
H2       0.30636    1.06945    0.60152   1.00
H2       0.21585    1.01816    0.60433   1.00
C5       0.27506    1.05299    0.74183   1.00
H2       0.28789    1.06062    0.75828   1.00
H2       0.22138    1.04166    0.74035   1.00
C5       0.32301    1.11740    0.72962   1.00
H2       0.32457    1.16281    0.73661   1.00
