data_IRMOF10_interpen_symm_ligand1lp_symm_i

_audit_creation_method             'generated by an auxiliary program of Tobunporous'

_symmetry_space_group_name_H-M     'P 1'
_symmetry_Int_Tables_number        1
_symmetry_cell_setting             triclinic

_cell_length_a                    22.6523
_cell_length_b                    22.6523
_cell_length_c                    65.9502
_cell_angle_alpha                 90.0000
_cell_angle_beta                  90.0000
_cell_angle_gamma                 120.0000

loop_
_atom_site_label
_atom_site_fract_x
_atom_site_fract_y
_atom_site_fract_z
_atom_site_occupancy
O1       0.00000    -0.00000   0.62500   1.00
Zn      0.00000    -0.00000   0.59589   1.00
Zn      0.94848    1.04288    0.63392   1.00
Zn      0.09439    0.05152    0.63392   1.00
Zn      -0.04288   0.90561    0.63392   1.00
O2       0.93860    0.02610    0.58587   1.00
O2       0.08750    0.06140    0.58587   1.00
O2       -0.02610   0.91250    0.58587   1.00
O2       0.91305    0.07161    0.61181   1.00
O2       0.00462    0.12022    0.65110   1.00
O2       0.87413    0.98074    0.65071   1.00
O2       0.15856    0.08695    0.61181   1.00
O2       0.10660    0.12587    0.65071   1.00
O2       0.11559    0.99538    0.65110   1.00
O2       -0.07161   0.84144    0.61181   1.00
O2       0.87978    0.88441    0.65110   1.00
O2       0.01926    0.89340    0.65071   1.00
C1       0.91390    0.06020    0.59358   1.00
C1       0.14630    0.08610    0.59358   1.00
C1       -0.06020   0.85370    0.59358   1.00
C1       0.06663    0.14397    0.65673   1.00
C1       0.85603    0.92267    0.65673   1.00
C1       0.07733    0.93337    0.65673   1.00
O1       -0.00000   0.00000    0.87500   1.00
Zn      -0.00000   0.00000    0.90411   1.00
Zn      1.04288    0.94848    0.86608   1.00
Zn      0.05152    0.09439    0.86608   1.00
Zn      0.90561    -0.04288   0.86608   1.00
O2       0.02610    0.93860    0.91413   1.00
O2       0.06140    0.08750    0.91413   1.00
O2       0.91250    -0.02610   0.91413   1.00
O2       0.07161    0.91305    0.88819   1.00
O2       0.12022    0.00462    0.84890   1.00
O2       0.98074    0.87413    0.84929   1.00
O2       0.08695    0.15856    0.88819   1.00
O2       0.12587    0.10660    0.84929   1.00
O2       0.99538    0.11559    0.84890   1.00
O2       0.84144    -0.07161   0.88819   1.00
O2       0.88441    0.87978    0.84890   1.00
O2       0.89340    0.01926    0.84929   1.00
C1       0.06020    0.91390    0.90642   1.00
C1       0.08610    0.14630    0.90642   1.00
C1       0.85370    -0.06020   0.90642   1.00
C1       0.14397    0.06663    0.84327   1.00
C1       0.92267    0.85603    0.84327   1.00
C1       0.93337    0.07733    0.84327   1.00
O1       0.00000    0.00000    0.37500   1.00
Zn      0.00000    0.00000    0.40411   1.00
Zn      0.05152    -0.04288   0.36608   1.00
Zn      0.90561    0.94848    0.36608   1.00
Zn      1.04288    0.09439    0.36608   1.00
O2       0.06140    -0.02610   0.41413   1.00
O2       0.91250    0.93860    0.41413   1.00
O2       0.02610    0.08750    0.41413   1.00
O2       0.08695    -0.07161   0.38819   1.00
O2       0.99538    0.87978    0.34890   1.00
O2       0.12587    0.01926    0.34929   1.00
O2       0.84144    0.91305    0.38819   1.00
O2       0.89340    0.87413    0.34929   1.00
O2       0.88441    0.00462    0.34890   1.00
O2       0.07161    0.15856    0.38819   1.00
O2       0.12022    0.11559    0.34890   1.00
O2       0.98074    0.10660    0.34929   1.00
C1       0.08610    -0.06020   0.40642   1.00
C1       0.85370    0.91390    0.40642   1.00
C1       0.06020    0.14630    0.40642   1.00
C1       0.93337    0.85603    0.34327   1.00
C1       0.14397    0.07733    0.34327   1.00
C1       0.92267    0.06663    0.34327   1.00
O1       0.00000    0.00000    0.12500   1.00
Zn      0.00000    0.00000    0.09589   1.00
Zn      -0.04288   0.05152    0.13392   1.00
Zn      0.94848    0.90561    0.13392   1.00
Zn      0.09439    1.04288    0.13392   1.00
O2       -0.02610   0.06140    0.08587   1.00
O2       0.93860    0.91250    0.08587   1.00
O2       0.08750    0.02610    0.08587   1.00
O2       -0.07161   0.08695    0.11181   1.00
O2       0.87978    0.99538    0.15110   1.00
O2       0.01926    0.12587    0.15071   1.00
O2       0.91305    0.84144    0.11181   1.00
O2       0.87413    0.89340    0.15071   1.00
O2       0.00462    0.88441    0.15110   1.00
O2       0.15856    0.07161    0.11181   1.00
O2       0.11559    0.12022    0.15110   1.00
O2       0.10660    0.98074    0.15071   1.00
C1       -0.06020   0.08610    0.09358   1.00
C1       0.91390    0.85370    0.09358   1.00
C1       0.14630    0.06020    0.09358   1.00
C1       0.85603    0.93337    0.15673   1.00
C1       0.07733    0.14397    0.15673   1.00
C1       0.06663    0.92267    0.15673   1.00
O1       0.66667    0.33333    0.95833   1.00
Zn      0.66667    0.33333    0.92922   1.00
Zn      0.61515    0.37621    0.96725   1.00
Zn      0.76106    0.38485    0.96725   1.00
Zn      -0.37621   0.23894    0.96725   1.00
O2       0.60527    0.35943    0.91920   1.00
O2       0.75417    0.39473    0.91920   1.00
O2       0.64057    0.24583    0.91920   1.00
O2       0.57972    0.40494    0.94514   1.00
O2       0.67129    0.45355    0.98443   1.00
O2       0.54080    0.31407    0.98404   1.00
O2       0.82523    0.42028    0.94514   1.00
O2       0.77327    0.45920    0.98404   1.00
O2       -0.21774   0.32871    0.98443   1.00
O2       0.59506    0.17477    0.94514   1.00
O2       0.54645    0.21774    0.98443   1.00
O2       -0.31407   0.22673    0.98404   1.00
C1       0.58057    0.39353    0.92691   1.00
C1       0.81297    0.41943    0.92691   1.00
C1       0.60647    0.18703    0.92691   1.00
C1       0.73330    0.47730    0.99006   1.00
C1       0.52270    0.25600    0.99006   1.00
C1       -0.25600   0.26670    0.99006   1.00
O1       0.66667    0.33333    0.20833   1.00
Zn      0.66667    0.33333    0.23744   1.00
Zn      0.70954    0.28182    0.19942   1.00
Zn      0.71818    0.42773    0.19942   1.00
Zn      0.57227    0.29046    0.19942   1.00
O2       0.69277    0.27193    0.24746   1.00
O2       0.72807    0.42083    0.24746   1.00
O2       0.57917    0.30723    0.24746   1.00
O2       0.73828    0.24638    0.22152   1.00
O2       0.78688    0.33796    0.18224   1.00
O2       0.64740    0.20747    0.18263   1.00
O2       0.75362    0.49189    0.22152   1.00
O2       0.79253    0.43994    0.18263   1.00
O2       0.66204    0.44893    0.18224   1.00
O2       0.50811    0.26172    0.22152   1.00
O2       0.55107    0.21312    0.18224   1.00
O2       0.56006    0.35260    0.18263   1.00
C1       0.72687    0.24723    0.23975   1.00
C1       0.75277    0.47963    0.23975   1.00
C1       0.52037    0.27313    0.23975   1.00
C1       0.81063    0.39997    0.17661   1.00
C1       0.58933    0.18937    0.17661   1.00
C1       0.60003    0.41067    0.17661   1.00
O1       0.66667    0.33333    0.70833   1.00
Zn      0.66667    0.33333    0.73744   1.00
Zn      0.71818    0.29046    0.69942   1.00
Zn      0.57227    0.28182    0.69942   1.00
Zn      0.70954    0.42773    0.69942   1.00
O2       0.72807    0.30723    0.74746   1.00
O2       0.57917    0.27193    0.74746   1.00
O2       0.69277    0.42083    0.74746   1.00
O2       0.75362    0.26172    0.72152   1.00
O2       0.66204    0.21312    0.68224   1.00
O2       0.79253    0.35260    0.68263   1.00
O2       0.50811    0.24638    0.72152   1.00
O2       0.56006    0.20747    0.68263   1.00
O2       0.55107    0.33796    0.68224   1.00
O2       0.73828    0.49189    0.72152   1.00
O2       0.78688    0.44893    0.68224   1.00
O2       0.64740    0.43994    0.68263   1.00
C1       0.75277    0.27313    0.73975   1.00
C1       0.52037    0.24723    0.73975   1.00
C1       0.72687    0.47963    0.73975   1.00
C1       0.60003    0.18937    0.67661   1.00
C1       0.81063    0.41067    0.67661   1.00
C1       0.58933    0.39997    0.67661   1.00
O1       0.66667    0.33333    0.45833   1.00
Zn      0.66667    0.33333    0.42922   1.00
Zn      -0.37621   0.38485    0.46725   1.00
Zn      0.61515    0.23894    0.46725   1.00
Zn      0.76106    0.37621    0.46725   1.00
O2       0.64057    0.39473    0.41920   1.00
O2       0.60527    0.24583    0.41920   1.00
O2       0.75417    0.35943    0.41920   1.00
O2       0.59506    0.42028    0.44514   1.00
O2       0.54645    0.32871    0.48443   1.00
O2       -0.31407   0.45920    0.48404   1.00
O2       0.57972    0.17477    0.44514   1.00
O2       0.54080    0.22673    0.48404   1.00
O2       0.67129    0.21774    0.48443   1.00
O2       0.82523    0.40494    0.44514   1.00
O2       -0.21774   0.45355    0.48443   1.00
O2       0.77327    0.31407    0.48404   1.00
C1       0.60647    0.41943    0.42691   1.00
C1       0.58057    0.18703    0.42691   1.00
C1       0.81297    0.39353    0.42691   1.00
C1       0.52270    0.26670    0.49006   1.00
C1       -0.25600   0.47730    0.49006   1.00
C1       0.73330    0.25600    0.49006   1.00
O1       0.33333    0.66667    0.29167   1.00
Zn      0.33333    0.66667    0.26256   1.00
Zn      0.28182    0.70954    0.30058   1.00
Zn      0.42773    0.71818    0.30058   1.00
Zn      0.29046    0.57227    0.30058   1.00
O2       0.27193    0.69277    0.25254   1.00
O2       0.42083    0.72807    0.25254   1.00
O2       0.30723    0.57917    0.25254   1.00
O2       0.24638    0.73828    0.27848   1.00
O2       0.33796    0.78688    0.31776   1.00
O2       0.20747    0.64740    0.31737   1.00
O2       0.49189    0.75362    0.27848   1.00
O2       0.43994    0.79253    0.31737   1.00
O2       0.44893    0.66204    0.31776   1.00
O2       0.26172    0.50811    0.27848   1.00
O2       0.21312    0.55107    0.31776   1.00
O2       0.35260    0.56006    0.31737   1.00
C1       0.24723    0.72687    0.26025   1.00
C1       0.47963    0.75277    0.26025   1.00
C1       0.27313    0.52037    0.26025   1.00
C1       0.39997    0.81063    0.32339   1.00
C1       0.18937    0.58933    0.32339   1.00
C1       0.41067    0.60003    0.32339   1.00
O1       0.33333    0.66667    0.54167   1.00
Zn      0.33333    0.66667    0.57078   1.00
Zn      0.37621    0.61515    0.53275   1.00
Zn      0.38485    0.76106    0.53275   1.00
Zn      0.23894    -0.37621   0.53275   1.00
O2       0.35943    0.60527    0.58080   1.00
O2       0.39473    0.75417    0.58080   1.00
O2       0.24583    0.64057    0.58080   1.00
O2       0.40494    0.57972    0.55486   1.00
O2       0.45355    0.67129    0.51557   1.00
O2       0.31407    0.54080    0.51596   1.00
O2       0.42028    0.82523    0.55486   1.00
O2       0.45920    0.77327    0.51596   1.00
O2       0.32871    -0.21774   0.51557   1.00
O2       0.17477    0.59506    0.55486   1.00
O2       0.21774    0.54645    0.51557   1.00
O2       0.22673    -0.31407   0.51596   1.00
C1       0.39353    0.58057    0.57309   1.00
C1       0.41943    0.81297    0.57309   1.00
C1       0.18703    0.60647    0.57309   1.00
C1       0.47730    0.73330    0.50994   1.00
C1       0.25600    0.52270    0.50994   1.00
C1       0.26670    -0.25600   0.50994   1.00
O1       0.33333    0.66667    0.04167   1.00
Zn      0.33333    0.66667    0.07078   1.00
Zn      0.38485    -0.37621   0.03275   1.00
Zn      0.23894    0.61515    0.03275   1.00
Zn      0.37621    0.76106    0.03275   1.00
O2       0.39473    0.64057    0.08080   1.00
O2       0.24583    0.60527    0.08080   1.00
O2       0.35943    0.75417    0.08080   1.00
O2       0.42028    0.59506    0.05486   1.00
O2       0.32871    0.54645    0.01557   1.00
O2       0.45920    -0.31407   0.01596   1.00
O2       0.17477    0.57972    0.05486   1.00
O2       0.22673    0.54080    0.01596   1.00
O2       0.21774    0.67129    0.01557   1.00
O2       0.40494    0.82523    0.05486   1.00
O2       0.45355    -0.21774   0.01557   1.00
O2       0.31407    0.77327    0.01596   1.00
C1       0.41943    0.60647    0.07309   1.00
C1       0.18703    0.58057    0.07309   1.00
C1       0.39353    0.81297    0.07309   1.00
C1       0.26670    0.52270    0.00994   1.00
C1       0.47730    -0.25600   0.00994   1.00
C1       0.25600    0.73330    0.00994   1.00
O1       0.33333    0.66667    0.79167   1.00
Zn      0.33333    0.66667    0.76256   1.00
Zn      0.29046    0.71818    0.80058   1.00
Zn      0.28182    0.57227    0.80058   1.00
Zn      0.42773    0.70954    0.80058   1.00
O2       0.30723    0.72807    0.75254   1.00
O2       0.27193    0.57917    0.75254   1.00
O2       0.42083    0.69277    0.75254   1.00
O2       0.26172    0.75362    0.77848   1.00
O2       0.21312    0.66204    0.81776   1.00
O2       0.35260    0.79253    0.81737   1.00
O2       0.24638    0.50811    0.77848   1.00
O2       0.20747    0.56006    0.81737   1.00
O2       0.33796    0.55107    0.81776   1.00
O2       0.49189    0.73828    0.77848   1.00
O2       0.44893    0.78688    0.81776   1.00
O2       0.43994    0.64740    0.81737   1.00
C1       0.27313    0.75277    0.76025   1.00
C1       0.24723    0.52037    0.76025   1.00
C1       0.47963    0.72687    0.76025   1.00
C1       0.18937    0.60003    0.82339   1.00
C1       0.41067    0.81063    0.82339   1.00
C1       0.39997    0.58933    0.82339   1.00
C2       -0.21664   0.53945    0.50400   1.00
C3       -0.23300   0.58816    0.50464   1.00
H1       -0.26328   0.58777    0.49504   1.00
C3       -0.17369   0.53991    0.51843   1.00
H1       -0.16236   0.50571    0.51844   1.00
C4       -0.20701   0.63906    0.51899   1.00
C5       -0.22594   0.69466    0.51979   1.00
H2       -0.26691   0.67901    0.52761   1.00
H2       -0.23335   0.70535    0.50629   1.00
H2       -0.18965   0.73467    0.52600   1.00
C4       -0.14650   0.58987    0.53317   1.00
C5       -0.09880   0.58896    0.54995   1.00
H2       -0.05219   0.61733    0.54593   1.00
H2       -0.10810   0.54314    0.55195   1.00
H2       -0.10668   0.60596    0.56235   1.00
C6       -0.16402   0.63962    0.53382   1.00
C6       -0.13595   0.69280    0.54975   1.00
C4       -0.17184   0.68442    0.56753   1.00
C5       -0.23441   0.61864    0.57180   1.00
H2       -0.27345   0.62028    0.56690   1.00
H2       -0.23870   0.61063    0.58611   1.00
H2       -0.23148   0.58244    0.56511   1.00
C4       -0.07381   0.75125    0.54603   1.00
C5       -0.03251   0.76369    0.52653   1.00
H2       -0.00298   0.74476    0.52795   1.00
H2       -0.00559   0.81176    0.52407   1.00
H2       -0.06300   0.74208    0.51539   1.00
C3       -0.14571   0.73654    0.58172   1.00
H1       -0.16915   0.73066    0.59385   1.00
C3       -0.05090   0.80371    0.56123   1.00
H1       -0.01016   0.84405    0.55915   1.00
C2       -0.08630   0.79640    0.57845   1.00
C2       0.46055    0.24391    0.50400   1.00
C3       0.41184    0.17884    0.50464   1.00
H1       0.41223    0.14895    0.49504   1.00
C3       0.46009    0.28640    0.51843   1.00
H1       0.49429    0.33193    0.51844   1.00
C4       0.36094    0.15393    0.51899   1.00
C5       0.30534    0.07940    0.51979   1.00
H2       0.32099    0.05408    0.52761   1.00
H2       0.29465    0.06130    0.50629   1.00
H2       0.26533    0.07568    0.52600   1.00
C4       0.41013    0.26363    0.53317   1.00
C5       0.41104    0.31224    0.54995   1.00
H2       0.38267    0.33048    0.54593   1.00
H2       0.45686    0.34876    0.55195   1.00
H2       0.39404    0.28736    0.56235   1.00
C6       0.36038    0.19636    0.53382   1.00
C6       0.30720    0.17125    0.54975   1.00
C4       0.31558    0.14374    0.56753   1.00
C5       0.38136    0.14695    0.57180   1.00
H2       0.37972    0.10627    0.56690   1.00
H2       0.38937    0.15067    0.58611   1.00
H2       0.41756    0.18608    0.56511   1.00
C4       0.24875    0.17494    0.54603   1.00
C5       0.23631    0.20380    0.52653   1.00
H2       0.25524    0.25226    0.52795   1.00
H2       0.18824    0.18265    0.52407   1.00
H2       0.25792    0.19492    0.51539   1.00
C3       0.26346    0.11775    0.58172   1.00
H1       0.26934    0.10019    0.59385   1.00
C3       0.19629    0.14539    0.56123   1.00
H1       0.15595    0.14579    0.55915   1.00
C2       0.20360    0.11730    0.57845   1.00
C2       0.75609    0.21664    0.50400   1.00
C3       0.82116    0.23300    0.50464   1.00
H1       0.85105    0.26328    0.49504   1.00
C3       0.71360    0.17369    0.51843   1.00
H1       0.66807    0.16236    0.51844   1.00
C4       0.84607    0.20701    0.51899   1.00
C5       0.92060    0.22594    0.51979   1.00
H2       0.94592    0.26691    0.52761   1.00
H2       0.93870    0.23335    0.50629   1.00
H2       0.92432    0.18965    0.52600   1.00
C4       0.73637    0.14650    0.53317   1.00
C5       0.68776    0.09880    0.54995   1.00
H2       0.66952    0.05219    0.54593   1.00
H2       0.65124    0.10810    0.55195   1.00
H2       0.71264    0.10668    0.56235   1.00
C6       0.80364    0.16402    0.53382   1.00
C6       0.82875    0.13595    0.54975   1.00
C4       0.85626    0.17184    0.56753   1.00
C5       0.85305    0.23441    0.57180   1.00
H2       0.89373    0.27345    0.56690   1.00
H2       0.84933    0.23870    0.58611   1.00
H2       0.81392    0.23148    0.56511   1.00
C4       0.82506    0.07381    0.54603   1.00
C5       0.79620    0.03251    0.52653   1.00
H2       0.74774    0.00298    0.52795   1.00
H2       0.81735    0.00559    0.52407   1.00
H2       0.80508    0.06300    0.51539   1.00
C3       0.88225    0.14571    0.58172   1.00
H1       0.89981    0.16915    0.59385   1.00
C3       0.85461    0.05090    0.56123   1.00
H1       0.85421    0.01016    0.55915   1.00
C2       0.88270    0.08630    0.57845   1.00
C2       0.53945    -0.21664   0.99600   1.00
C3       0.58816    -0.23300   0.99536   1.00
H1       0.58777    -0.26328   0.00496   1.00
C3       0.53991    -0.17369   0.98157   1.00
H1       0.50571    -0.16236   0.98156   1.00
C4       0.63906    -0.20701   0.98101   1.00
C5       0.69466    -0.22594   0.98021   1.00
H2       0.67901    -0.26691   0.97239   1.00
H2       0.70535    -0.23335   0.99371   1.00
H2       0.73467    -0.18965   0.97400   1.00
C4       0.58987    -0.14650   0.96683   1.00
C5       0.58896    -0.09880   0.95005   1.00
H2       0.61733    -0.05219   0.95407   1.00
H2       0.54314    -0.10810   0.94805   1.00
H2       0.60596    -0.10668   0.93765   1.00
C6       0.63962    -0.16402   0.96618   1.00
C6       0.69280    -0.13595   0.95025   1.00
C4       0.68442    -0.17184   0.93247   1.00
C5       0.61864    -0.23441   0.92820   1.00
H2       0.62028    -0.27345   0.93310   1.00
H2       0.61063    -0.23870   0.91389   1.00
H2       0.58244    -0.23148   0.93489   1.00
C4       0.75125    -0.07381   0.95397   1.00
C5       0.76369    -0.03251   0.97347   1.00
H2       0.74476    -0.00298   0.97205   1.00
H2       0.81176    -0.00559   0.97593   1.00
H2       0.74208    -0.06300   0.98461   1.00
C3       0.73654    -0.14571   0.91828   1.00
H1       0.73066    -0.16915   0.90615   1.00
C3       0.80371    -0.05090   0.93877   1.00
H1       0.84405    -0.01016   0.94085   1.00
C2       0.79640    -0.08630   0.92155   1.00
C2       0.24391    0.46055    0.99600   1.00
C3       0.17884    0.41184    0.99536   1.00
H1       0.14895    0.41223    0.00496   1.00
C3       0.28640    0.46009    0.98157   1.00
H1       0.33193    0.49429    0.98156   1.00
C4       0.15393    0.36094    0.98101   1.00
C5       0.07940    0.30534    0.98021   1.00
H2       0.05408    0.32099    0.97239   1.00
H2       0.06130    0.29465    0.99371   1.00
H2       0.07568    0.26533    0.97400   1.00
C4       0.26363    0.41013    0.96683   1.00
C5       0.31224    0.41104    0.95005   1.00
H2       0.33048    0.38267    0.95407   1.00
H2       0.34876    0.45686    0.94805   1.00
H2       0.28736    0.39404    0.93765   1.00
C6       0.19636    0.36038    0.96618   1.00
C6       0.17125    0.30720    0.95025   1.00
C4       0.14374    0.31558    0.93247   1.00
C5       0.14695    0.38136    0.92820   1.00
H2       0.10627    0.37972    0.93310   1.00
H2       0.15067    0.38937    0.91389   1.00
H2       0.18608    0.41756    0.93489   1.00
C4       0.17494    0.24875    0.95397   1.00
C5       0.20380    0.23631    0.97347   1.00
H2       0.25226    0.25524    0.97205   1.00
H2       0.18265    0.18824    0.97593   1.00
H2       0.19492    0.25792    0.98461   1.00
C3       0.11775    0.26346    0.91828   1.00
H1       0.10019    0.26934    0.90615   1.00
C3       0.14539    0.19629    0.93877   1.00
H1       0.14579    0.15595    0.94085   1.00
C2       0.11730    0.20360    0.92155   1.00
C2       0.21664    0.75609    0.99600   1.00
C3       0.23300    0.82116    0.99536   1.00
H1       0.26328    0.85105    0.00496   1.00
C3       0.17369    0.71360    0.98157   1.00
H1       0.16236    0.66807    0.98156   1.00
C4       0.20701    0.84607    0.98101   1.00
C5       0.22594    0.92060    0.98021   1.00
H2       0.26691    0.94592    0.97239   1.00
H2       0.23335    0.93870    0.99371   1.00
H2       0.18965    0.92432    0.97400   1.00
C4       0.14650    0.73637    0.96683   1.00
C5       0.09880    0.68776    0.95005   1.00
H2       0.05219    0.66952    0.95407   1.00
H2       0.10810    0.65124    0.94805   1.00
H2       0.10668    0.71264    0.93765   1.00
C6       0.16402    0.80364    0.96618   1.00
C6       0.13595    0.82875    0.95025   1.00
C4       0.17184    0.85626    0.93247   1.00
C5       0.23441    0.85305    0.92820   1.00
H2       0.27345    0.89373    0.93310   1.00
H2       0.23870    0.84933    0.91389   1.00
H2       0.23148    0.81392    0.93489   1.00
C4       0.07381    0.82506    0.95397   1.00
C5       0.03251    0.79620    0.97347   1.00
H2       0.00298    0.74774    0.97205   1.00
H2       0.00559    0.81735    0.97593   1.00
H2       0.06300    0.80508    0.98461   1.00
C3       0.14571    0.88225    0.91828   1.00
H1       0.16915    0.89981    0.90615   1.00
C3       0.05090    0.85461    0.93877   1.00
H1       0.01016    0.85421    0.94085   1.00
C2       0.08630    0.88270    0.92155   1.00
C2       0.21664    0.46055    0.49600   1.00
C3       0.23300    0.41184    0.49536   1.00
H1       0.26328    0.41223    0.50496   1.00
C3       0.17369    0.46009    0.48157   1.00
H1       0.16236    0.49429    0.48156   1.00
C4       0.20701    0.36094    0.48101   1.00
C5       0.22594    0.30534    0.48021   1.00
H2       0.26691    0.32099    0.47239   1.00
H2       0.23335    0.29465    0.49371   1.00
H2       0.18965    0.26533    0.47400   1.00
C4       0.14650    0.41013    0.46683   1.00
C5       0.09880    0.41104    0.45005   1.00
H2       0.05219    0.38267    0.45407   1.00
H2       0.10810    0.45686    0.44805   1.00
H2       0.10668    0.39404    0.43765   1.00
C6       0.16402    0.36038    0.46618   1.00
C6       0.13595    0.30720    0.45025   1.00
C4       0.17184    0.31558    0.43247   1.00
C5       0.23441    0.38136    0.42820   1.00
H2       0.27345    0.37972    0.43310   1.00
H2       0.23870    0.38937    0.41389   1.00
H2       0.23148    0.41756    0.43489   1.00
C4       0.07381    0.24875    0.45397   1.00
C5       0.03251    0.23631    0.47347   1.00
H2       0.00298    0.25524    0.47205   1.00
H2       0.00559    0.18824    0.47593   1.00
H2       0.06300    0.25792    0.48461   1.00
C3       0.14571    0.26346    0.41828   1.00
H1       0.16915    0.26934    0.40615   1.00
C3       0.05090    0.19629    0.43877   1.00
H1       0.01016    0.15595    0.44085   1.00
C2       0.08630    0.20360    0.42155   1.00
C2       0.53945    0.75609    0.49600   1.00
C3       0.58816    0.82116    0.49536   1.00
H1       0.58777    0.85105    0.50496   1.00
C3       0.53991    0.71360    0.48157   1.00
H1       0.50571    0.66807    0.48156   1.00
C4       0.63906    0.84607    0.48101   1.00
C5       0.69466    0.92060    0.48021   1.00
H2       0.67901    0.94592    0.47239   1.00
H2       0.70535    0.93870    0.49371   1.00
H2       0.73467    0.92432    0.47400   1.00
C4       0.58987    0.73637    0.46683   1.00
C5       0.58896    0.68776    0.45005   1.00
H2       0.61733    0.66952    0.45407   1.00
H2       0.54314    0.65124    0.44805   1.00
H2       0.60596    0.71264    0.43765   1.00
C6       0.63962    0.80364    0.46618   1.00
C6       0.69280    0.82875    0.45025   1.00
C4       0.68442    0.85626    0.43247   1.00
C5       0.61864    0.85305    0.42820   1.00
H2       0.62028    0.89373    0.43310   1.00
H2       0.61063    0.84933    0.41389   1.00
H2       0.58244    0.81392    0.43489   1.00
C4       0.75125    0.82506    0.45397   1.00
C5       0.76369    0.79620    0.47347   1.00
H2       0.74476    0.74774    0.47205   1.00
H2       0.81176    0.81735    0.47593   1.00
H2       0.74208    0.80508    0.48461   1.00
C3       0.73654    0.88225    0.41828   1.00
H1       0.73066    0.89981    0.40615   1.00
C3       0.80371    0.85461    0.43877   1.00
H1       0.84405    0.85421    0.44085   1.00
C2       0.79640    0.88270    0.42155   1.00
C2       0.24391    -0.21664   0.49600   1.00
C3       0.17884    -0.23300   0.49536   1.00
H1       0.14895    -0.26328   0.50496   1.00
C3       0.28640    -0.17369   0.48157   1.00
H1       0.33193    -0.16236   0.48156   1.00
C4       0.15393    -0.20701   0.48101   1.00
C5       0.07940    -0.22594   0.48021   1.00
H2       0.05408    -0.26691   0.47239   1.00
H2       0.06130    -0.23335   0.49371   1.00
H2       0.07568    -0.18965   0.47400   1.00
C4       0.26363    -0.14650   0.46683   1.00
C5       0.31224    -0.09880   0.45005   1.00
H2       0.33048    -0.05219   0.45407   1.00
H2       0.34876    -0.10810   0.44805   1.00
H2       0.28736    -0.10668   0.43765   1.00
C6       0.19636    -0.16402   0.46618   1.00
C6       0.17125    -0.13595   0.45025   1.00
C4       0.14374    -0.17184   0.43247   1.00
C5       0.14695    -0.23441   0.42820   1.00
H2       0.10627    -0.27345   0.43310   1.00
H2       0.15067    -0.23870   0.41389   1.00
H2       0.18608    -0.23148   0.43489   1.00
C4       0.17494    -0.07381   0.45397   1.00
C5       0.20380    -0.03251   0.47347   1.00
H2       0.25226    -0.00298   0.47205   1.00
H2       0.18265    -0.00559   0.47593   1.00
H2       0.19492    -0.06300   0.48461   1.00
C3       0.11775    -0.14571   0.41828   1.00
H1       0.10019    -0.16915   0.40615   1.00
C3       0.14539    -0.05090   0.43877   1.00
H1       0.14579    -0.01016   0.44085   1.00
C2       0.11730    -0.08630   0.42155   1.00
C2       0.46055    0.21664    0.00400   1.00
C3       0.41184    0.23300    0.00464   1.00
H1       0.41223    0.26328    0.99504   1.00
C3       0.46009    0.17369    0.01843   1.00
H1       0.49429    0.16236    0.01844   1.00
C4       0.36094    0.20701    0.01899   1.00
C5       0.30534    0.22594    0.01979   1.00
H2       0.32099    0.26691    0.02761   1.00
H2       0.29465    0.23335    0.00629   1.00
H2       0.26533    0.18965    0.02600   1.00
C4       0.41013    0.14650    0.03317   1.00
C5       0.41104    0.09880    0.04995   1.00
H2       0.38267    0.05219    0.04593   1.00
H2       0.45686    0.10810    0.05195   1.00
H2       0.39404    0.10668    0.06235   1.00
C6       0.36038    0.16402    0.03382   1.00
C6       0.30720    0.13595    0.04975   1.00
C4       0.31558    0.17184    0.06753   1.00
C5       0.38136    0.23441    0.07180   1.00
H2       0.37972    0.27345    0.06690   1.00
H2       0.38937    0.23870    0.08611   1.00
H2       0.41756    0.23148    0.06511   1.00
C4       0.24875    0.07381    0.04603   1.00
C5       0.23631    0.03251    0.02653   1.00
H2       0.25524    0.00298    0.02795   1.00
H2       0.18824    0.00559    0.02407   1.00
H2       0.25792    0.06300    0.01539   1.00
C3       0.26346    0.14571    0.08172   1.00
H1       0.26934    0.16915    0.09385   1.00
C3       0.19629    0.05090    0.06123   1.00
H1       0.15595    0.01016    0.05915   1.00
C2       0.20360    0.08630    0.07845   1.00
C2       0.75609    0.53945    0.00400   1.00
C3       0.82116    0.58816    0.00464   1.00
H1       0.85105    0.58777    0.99504   1.00
C3       0.71360    0.53991    0.01843   1.00
H1       0.66807    0.50571    0.01844   1.00
C4       0.84607    0.63906    0.01899   1.00
C5       0.92060    0.69466    0.01979   1.00
H2       0.94592    0.67901    0.02761   1.00
H2       0.93870    0.70535    0.00629   1.00
H2       0.92432    0.73467    0.02600   1.00
C4       0.73637    0.58987    0.03317   1.00
C5       0.68776    0.58896    0.04995   1.00
H2       0.66952    0.61733    0.04593   1.00
H2       0.65124    0.54314    0.05195   1.00
H2       0.71264    0.60596    0.06235   1.00
C6       0.80364    0.63962    0.03382   1.00
C6       0.82875    0.69280    0.04975   1.00
C4       0.85626    0.68442    0.06753   1.00
C5       0.85305    0.61864    0.07180   1.00
H2       0.89373    0.62028    0.06690   1.00
H2       0.84933    0.61063    0.08611   1.00
H2       0.81392    0.58244    0.06511   1.00
C4       0.82506    0.75125    0.04603   1.00
C5       0.79620    0.76369    0.02653   1.00
H2       0.74774    0.74476    0.02795   1.00
H2       0.81735    0.81176    0.02407   1.00
H2       0.80508    0.74208    0.01539   1.00
C3       0.88225    0.73654    0.08172   1.00
H1       0.89981    0.73066    0.09385   1.00
C3       0.85461    0.80371    0.06123   1.00
H1       0.85421    0.84405    0.05915   1.00
C2       0.88270    0.79640    0.07845   1.00
C2       -0.21664   0.24391    0.00400   1.00
C3       -0.23300   0.17884    0.00464   1.00
H1       -0.26328   0.14895    0.99504   1.00
C3       -0.17369   0.28640    0.01843   1.00
H1       -0.16236   0.33193    0.01844   1.00
C4       -0.20701   0.15393    0.01899   1.00
C5       -0.22594   0.07940    0.01979   1.00
H2       -0.26691   0.05408    0.02761   1.00
H2       -0.23335   0.06130    0.00629   1.00
H2       -0.18965   0.07568    0.02600   1.00
C4       -0.14650   0.26363    0.03317   1.00
C5       -0.09880   0.31224    0.04995   1.00
H2       -0.05219   0.33048    0.04593   1.00
H2       -0.10810   0.34876    0.05195   1.00
H2       -0.10668   0.28736    0.06235   1.00
C6       -0.16402   0.19636    0.03382   1.00
C6       -0.13595   0.17125    0.04975   1.00
C4       -0.17184   0.14374    0.06753   1.00
C5       -0.23441   0.14695    0.07180   1.00
H2       -0.27345   0.10627    0.06690   1.00
H2       -0.23870   0.15067    0.08611   1.00
H2       -0.23148   0.18608    0.06511   1.00
C4       -0.07381   0.17494    0.04603   1.00
C5       -0.03251   0.20380    0.02653   1.00
H2       -0.00298   0.25226    0.02795   1.00
H2       -0.00559   0.18265    0.02407   1.00
H2       -0.06300   0.19492    0.01539   1.00
C3       -0.14571   0.11775    0.08172   1.00
H1       -0.16915   0.10019    0.09385   1.00
C3       -0.05090   0.14539    0.06123   1.00
H1       -0.01016   0.14579    0.05915   1.00
C2       -0.08630   0.11730    0.07845   1.00
C2       0.45003    0.87278    0.83733   1.00
C3       0.43367    0.92149    0.83797   1.00
H1       0.40339    0.92110    0.82837   1.00
C3       0.49298    0.87324    0.85176   1.00
H1       0.50431    0.83904    0.85177   1.00
C4       0.45966    0.97239    0.85232   1.00
C5       0.44073    0.02799    0.85312   1.00
H2       0.39976    0.01234    0.86094   1.00
H2       0.43332    0.03868    0.83962   1.00
H2       0.47702    0.06800    0.85933   1.00
C4       0.52017    0.92320    0.86650   1.00
C5       0.56787    0.92229    0.88328   1.00
H2       0.61448    0.95066    0.87926   1.00
H2       0.55857    0.87647    0.88528   1.00
H2       0.55999    0.93929    0.89568   1.00
C6       0.50265    0.97295    0.86715   1.00
C6       0.53072    0.02613    0.88308   1.00
C4       0.49483    0.01775    0.90086   1.00
C5       0.43226    0.95197    0.90513   1.00
H2       0.39322    0.95361    0.90023   1.00
H2       0.42797    0.94396    0.91944   1.00
H2       0.43519    0.91577    0.89844   1.00
C4       0.59286    0.08458    0.87936   1.00
C5       0.63416    0.09702    0.85986   1.00
H2       0.66369    0.07809    0.86128   1.00
H2       0.66108    0.14509    0.85740   1.00
H2       0.60367    0.07541    0.84872   1.00
C3       0.52096    0.06987    0.91505   1.00
H1       0.49752    0.06399    0.92718   1.00
C3       0.61577    0.13704    0.89456   1.00
H1       0.65651    0.17738    0.89248   1.00
C2       0.58037    0.12973    0.91178   1.00
C2       0.12722    0.57724    0.83733   1.00
C3       0.07851    0.51217    0.83797   1.00
H1       0.07890    0.48228    0.82837   1.00
C3       0.12676    0.61973    0.85176   1.00
H1       0.16096    0.66526    0.85177   1.00
C4       0.02761    0.48726    0.85232   1.00
C5       0.97201    0.41273    0.85312   1.00
H2       0.98766    0.38741    0.86094   1.00
H2       0.96132    0.39463    0.83962   1.00
H2       0.93200    0.40901    0.85933   1.00
C4       0.07680    0.59696    0.86650   1.00
C5       0.07771    0.64557    0.88328   1.00
H2       0.04934    0.66381    0.87926   1.00
H2       0.12353    0.68209    0.88528   1.00
H2       0.06071    0.62069    0.89568   1.00
C6       0.02705    0.52969    0.86715   1.00
C6       0.97387    0.50458    0.88308   1.00
C4       0.98225    0.47707    0.90086   1.00
C5       0.04803    0.48028    0.90513   1.00
H2       0.04639    0.43960    0.90023   1.00
H2       0.05604    0.48400    0.91944   1.00
H2       0.08423    0.51941    0.89844   1.00
C4       0.91542    0.50827    0.87936   1.00
C5       0.90298    0.53713    0.85986   1.00
H2       0.92191    0.58559    0.86128   1.00
H2       0.85491    0.51598    0.85740   1.00
H2       0.92459    0.52825    0.84872   1.00
C3       0.93013    0.45108    0.91505   1.00
H1       0.93601    0.43352    0.92718   1.00
C3       0.86296    0.47872    0.89456   1.00
H1       0.82262    0.47912    0.89248   1.00
C2       0.87027    0.45063    0.91178   1.00
C2       0.42276    0.54997    0.83733   1.00
C3       0.48783    0.56633    0.83797   1.00
H1       0.51772    0.59661    0.82837   1.00
C3       0.38027    0.50702    0.85176   1.00
H1       0.33474    0.49569    0.85177   1.00
C4       0.51274    0.54034    0.85232   1.00
C5       0.58727    0.55927    0.85312   1.00
H2       0.61259    0.60024    0.86094   1.00
H2       0.60537    0.56668    0.83962   1.00
H2       0.59099    0.52298    0.85933   1.00
C4       0.40304    0.47983    0.86650   1.00
C5       0.35443    0.43213    0.88328   1.00
H2       0.33619    0.38552    0.87926   1.00
H2       0.31791    0.44143    0.88528   1.00
H2       0.37931    0.44001    0.89568   1.00
C6       0.47031    0.49735    0.86715   1.00
C6       0.49542    0.46928    0.88308   1.00
C4       0.52293    0.50517    0.90086   1.00
C5       0.51972    0.56774    0.90513   1.00
H2       0.56040    0.60678    0.90023   1.00
H2       0.51600    0.57203    0.91944   1.00
H2       0.48059    0.56481    0.89844   1.00
C4       0.49173    0.40714    0.87936   1.00
C5       0.46287    0.36584    0.85986   1.00
H2       0.41441    0.33631    0.86128   1.00
H2       0.48402    0.33892    0.85740   1.00
H2       0.47175    0.39633    0.84872   1.00
C3       0.54892    0.47904    0.91505   1.00
H1       0.56648    0.50248    0.92718   1.00
C3       0.52128    0.38423    0.89456   1.00
H1       0.52088    0.34349    0.89248   1.00
C2       0.54937    0.41963    0.91178   1.00
C2       0.20612    0.11669    0.32933   1.00
C3       0.25483    0.10033    0.32869   1.00
H1       0.25444    0.07005    0.33829   1.00
C3       0.20658    0.15964    0.31490   1.00
H1       0.17238    0.17097    0.31489   1.00
C4       0.30573    0.12632    0.31434   1.00
C5       0.36133    0.10739    0.31354   1.00
H2       0.34568    0.06642    0.30572   1.00
H2       0.37202    0.09998    0.32704   1.00
H2       0.40134    0.14368    0.30733   1.00
C4       0.25654    0.18683    0.30016   1.00
C5       0.25563    0.23453    0.28338   1.00
H2       0.28400    0.28114    0.28740   1.00
H2       0.20981    0.22523    0.28138   1.00
H2       0.27263    0.22665    0.27098   1.00
C6       0.30629    0.16931    0.29951   1.00
C6       0.35947    0.19738    0.28358   1.00
C4       0.35109    0.16149    0.26580   1.00
C5       0.28531    0.09892    0.26153   1.00
H2       0.28695    0.05988    0.26643   1.00
H2       0.27730    0.09463    0.24722   1.00
H2       0.24911    0.10185    0.26822   1.00
C4       0.41792    0.25952    0.28730   1.00
C5       0.43036    0.30082    0.30680   1.00
H2       0.41143    0.33035    0.30538   1.00
H2       0.47843    0.32774    0.30926   1.00
H2       0.40875    0.27033    0.31794   1.00
C3       0.40321    0.18762    0.25161   1.00
H1       0.39733    0.16418    0.23948   1.00
C3       0.47038    0.28243    0.27210   1.00
H1       0.51072    0.32317    0.27418   1.00
C2       0.46307    0.24703    0.25488   1.00
C2       0.91058    0.79388    0.32933   1.00
C3       0.84551    0.74517    0.32869   1.00
H1       0.81562    0.74556    0.33829   1.00
C3       0.95307    0.79342    0.31490   1.00
H1       0.99860    0.82762    0.31489   1.00
C4       0.82060    0.69427    0.31434   1.00
C5       0.74607    0.63867    0.31354   1.00
H2       0.72075    0.65432    0.30572   1.00
H2       0.72797    0.62798    0.32704   1.00
H2       0.74235    0.59866    0.30733   1.00
C4       0.93030    0.74346    0.30016   1.00
C5       0.97891    0.74437    0.28338   1.00
H2       0.99715    0.71600    0.28740   1.00
H2       0.01543    0.79019    0.28138   1.00
H2       0.95403    0.72737    0.27098   1.00
C6       0.86303    0.69371    0.29951   1.00
C6       0.83792    0.64053    0.28358   1.00
C4       0.81041    0.64891    0.26580   1.00
C5       0.81362    0.71469    0.26153   1.00
H2       0.77294    0.71305    0.26643   1.00
H2       0.81734    0.72270    0.24722   1.00
H2       0.85275    0.75089    0.26822   1.00
C4       0.84161    0.58208    0.28730   1.00
C5       0.87047    0.56964    0.30680   1.00
H2       0.91893    0.58857    0.30538   1.00
H2       0.84932    0.52157    0.30926   1.00
H2       0.86159    0.59125    0.31794   1.00
C3       0.78442    0.59679    0.25161   1.00
H1       0.76686    0.60267    0.23948   1.00
C3       0.81206    0.52962    0.27210   1.00
H1       0.81246    0.48928    0.27418   1.00
C2       0.78397    0.53693    0.25488   1.00
C2       0.88331    0.08942    0.32933   1.00
C3       0.89967    0.15449    0.32869   1.00
H1       0.92995    0.18438    0.33829   1.00
C3       0.84036    0.04693    0.31490   1.00
H1       0.82903    0.00140    0.31489   1.00
C4       0.87368    0.17940    0.31434   1.00
C5       0.89261    0.25393    0.31354   1.00
H2       0.93358    0.27925    0.30572   1.00
H2       0.90002    0.27203    0.32704   1.00
H2       0.85632    0.25765    0.30733   1.00
C4       0.81317    0.06970    0.30016   1.00
C5       0.76547    0.02109    0.28338   1.00
H2       0.71886    0.00285    0.28740   1.00
H2       0.77477    0.98457    0.28138   1.00
H2       0.77335    0.04597    0.27098   1.00
C6       0.83069    0.13697    0.29951   1.00
C6       0.80262    0.16208    0.28358   1.00
C4       0.83851    0.18959    0.26580   1.00
C5       0.90108    0.18638    0.26153   1.00
H2       0.94012    0.22706    0.26643   1.00
H2       0.90537    0.18266    0.24722   1.00
H2       0.89815    0.14725    0.26822   1.00
C4       0.74048    0.15839    0.28730   1.00
C5       0.69918    0.12953    0.30680   1.00
H2       0.66965    0.08107    0.30538   1.00
H2       0.67226    0.15068    0.30926   1.00
H2       0.72967    0.13841    0.31794   1.00
C3       0.81238    0.21558    0.25161   1.00
H1       0.83582    0.23314    0.23948   1.00
C3       0.71757    0.18794    0.27210   1.00
H1       0.67683    0.18754    0.27418   1.00
C2       0.75297    0.21603    0.25488   1.00
C2       0.88331    0.79388    0.82933   1.00
C3       0.89967    0.74517    0.82869   1.00
H1       0.92995    0.74556    0.83829   1.00
C3       0.84036    0.79342    0.81490   1.00
H1       0.82903    0.82762    0.81489   1.00
C4       0.87368    0.69427    0.81434   1.00
C5       0.89261    0.63867    0.81354   1.00
H2       0.93358    0.65432    0.80572   1.00
H2       0.90002    0.62798    0.82704   1.00
H2       0.85632    0.59866    0.80733   1.00
C4       0.81317    0.74346    0.80016   1.00
C5       0.76547    0.74437    0.78338   1.00
H2       0.71886    0.71600    0.78740   1.00
H2       0.77477    0.79019    0.78138   1.00
H2       0.77335    0.72737    0.77098   1.00
C6       0.83069    0.69371    0.79951   1.00
C6       0.80262    0.64053    0.78358   1.00
C4       0.83851    0.64891    0.76580   1.00
C5       0.90108    0.71469    0.76153   1.00
H2       0.94012    0.71305    0.76643   1.00
H2       0.90537    0.72270    0.74722   1.00
H2       0.89815    0.75089    0.76822   1.00
C4       0.74048    0.58208    0.78730   1.00
C5       0.69918    0.56964    0.80680   1.00
H2       0.66965    0.58857    0.80538   1.00
H2       0.67226    0.52157    0.80926   1.00
H2       0.72967    0.59125    0.81794   1.00
C3       0.81238    0.59679    0.75161   1.00
H1       0.83582    0.60267    0.73948   1.00
C3       0.71757    0.52962    0.77210   1.00
H1       0.67683    0.48928    0.77418   1.00
C2       0.75297    0.53693    0.75488   1.00
C2       0.20612    0.08942    0.82933   1.00
C3       0.25483    0.15449    0.82869   1.00
H1       0.25444    0.18438    0.83829   1.00
C3       0.20658    0.04693    0.81490   1.00
H1       0.17238    0.00140    0.81489   1.00
C4       0.30573    0.17940    0.81434   1.00
C5       0.36133    0.25393    0.81354   1.00
H2       0.34568    0.27925    0.80572   1.00
H2       0.37202    0.27203    0.82704   1.00
H2       0.40134    0.25765    0.80733   1.00
C4       0.25654    0.06970    0.80016   1.00
C5       0.25563    0.02109    0.78338   1.00
H2       0.28400    0.00285    0.78740   1.00
H2       0.20981    0.98457    0.78138   1.00
H2       0.27263    0.04597    0.77098   1.00
C6       0.30629    0.13697    0.79951   1.00
C6       0.35947    0.16208    0.78358   1.00
C4       0.35109    0.18959    0.76580   1.00
C5       0.28531    0.18638    0.76153   1.00
H2       0.28695    0.22706    0.76643   1.00
H2       0.27730    0.18266    0.74722   1.00
H2       0.24911    0.14725    0.76822   1.00
C4       0.41792    0.15839    0.78730   1.00
C5       0.43036    0.12953    0.80680   1.00
H2       0.41143    0.08107    0.80538   1.00
H2       0.47843    0.15068    0.80926   1.00
H2       0.40875    0.13841    0.81794   1.00
C3       0.40321    0.21558    0.75161   1.00
H1       0.39733    0.23314    0.73948   1.00
C3       0.47038    0.18794    0.77210   1.00
H1       0.51072    0.18754    0.77418   1.00
C2       0.46307    0.21603    0.75488   1.00
C2       0.91058    0.11669    0.82933   1.00
C3       0.84551    0.10033    0.82869   1.00
H1       0.81562    0.07005    0.83829   1.00
C3       0.95307    0.15964    0.81490   1.00
H1       0.99860    0.17097    0.81489   1.00
C4       0.82060    0.12632    0.81434   1.00
C5       0.74607    0.10739    0.81354   1.00
H2       0.72075    0.06642    0.80572   1.00
H2       0.72797    0.09998    0.82704   1.00
H2       0.74235    0.14368    0.80733   1.00
C4       0.93030    0.18683    0.80016   1.00
C5       0.97891    0.23453    0.78338   1.00
H2       0.99715    0.28114    0.78740   1.00
H2       0.01543    0.22523    0.78138   1.00
H2       0.95403    0.22665    0.77098   1.00
C6       0.86303    0.16931    0.79951   1.00
C6       0.83792    0.19738    0.78358   1.00
C4       0.81041    0.16149    0.76580   1.00
C5       0.81362    0.09892    0.76153   1.00
H2       0.77294    0.05988    0.76643   1.00
H2       0.81734    0.09463    0.74722   1.00
H2       0.85275    0.10185    0.76822   1.00
C4       0.84161    0.25952    0.78730   1.00
C5       0.87047    0.30082    0.80680   1.00
H2       0.91893    0.33035    0.80538   1.00
H2       0.84932    0.32774    0.80926   1.00
H2       0.86159    0.27033    0.81794   1.00
C3       0.78442    0.18762    0.75161   1.00
H1       0.76686    0.16418    0.73948   1.00
C3       0.81206    0.28243    0.77210   1.00
H1       0.81246    0.32317    0.77418   1.00
C2       0.78397    0.24703    0.75488   1.00
C2       0.12722    0.54997    0.33733   1.00
C3       0.07851    0.56633    0.33797   1.00
H1       0.07890    0.59661    0.32837   1.00
C3       0.12676    0.50702    0.35176   1.00
H1       0.16096    0.49569    0.35177   1.00
C4       0.02761    0.54034    0.35232   1.00
C5       0.97201    0.55927    0.35312   1.00
H2       0.98766    0.60024    0.36094   1.00
H2       0.96132    0.56668    0.33962   1.00
H2       0.93200    0.52298    0.35933   1.00
C4       0.07680    0.47983    0.36650   1.00
C5       0.07771    0.43213    0.38328   1.00
H2       0.04934    0.38552    0.37926   1.00
H2       0.12353    0.44143    0.38528   1.00
H2       0.06071    0.44001    0.39568   1.00
C6       0.02705    0.49735    0.36715   1.00
C6       0.97387    0.46928    0.38308   1.00
C4       0.98225    0.50517    0.40086   1.00
C5       0.04803    0.56774    0.40513   1.00
H2       0.04639    0.60678    0.40023   1.00
H2       0.05604    0.57203    0.41944   1.00
H2       0.08423    0.56481    0.39844   1.00
C4       0.91542    0.40714    0.37936   1.00
C5       0.90298    0.36584    0.35986   1.00
H2       0.92191    0.33631    0.36128   1.00
H2       0.85491    0.33892    0.35740   1.00
H2       0.92459    0.39633    0.34872   1.00
C3       0.93013    0.47904    0.41505   1.00
H1       0.93601    0.50248    0.42718   1.00
C3       0.86296    0.38423    0.39456   1.00
H1       0.82262    0.34349    0.39248   1.00
C2       0.87027    0.41963    0.41178   1.00
C2       0.42276    0.87278    0.33733   1.00
C3       0.48783    0.92149    0.33797   1.00
H1       0.51772    0.92110    0.32837   1.00
C3       0.38027    0.87324    0.35176   1.00
H1       0.33474    0.83904    0.35177   1.00
C4       0.51274    0.97239    0.35232   1.00
C5       0.58727    0.02799    0.35312   1.00
H2       0.61259    0.01234    0.36094   1.00
H2       0.60537    0.03868    0.33962   1.00
H2       0.59099    0.06800    0.35933   1.00
C4       0.40304    0.92320    0.36650   1.00
C5       0.35443    0.92229    0.38328   1.00
H2       0.33619    0.95066    0.37926   1.00
H2       0.31791    0.87647    0.38528   1.00
H2       0.37931    0.93929    0.39568   1.00
C6       0.47031    0.97295    0.36715   1.00
C6       0.49542    0.02613    0.38308   1.00
C4       0.52293    0.01775    0.40086   1.00
C5       0.51972    0.95197    0.40513   1.00
H2       0.56040    0.95361    0.40023   1.00
H2       0.51600    0.94396    0.41944   1.00
H2       0.48059    0.91577    0.39844   1.00
C4       0.49173    0.08458    0.37936   1.00
C5       0.46287    0.09702    0.35986   1.00
H2       0.41441    0.07809    0.36128   1.00
H2       0.48402    0.14509    0.35740   1.00
H2       0.47175    0.07541    0.34872   1.00
C3       0.54892    0.06987    0.41505   1.00
H1       0.56648    0.06399    0.42718   1.00
C3       0.52128    0.13704    0.39456   1.00
H1       0.52088    0.17738    0.39248   1.00
C2       0.54937    0.12973    0.41178   1.00
C2       0.45003    0.57724    0.33733   1.00
C3       0.43367    0.51217    0.33797   1.00
H1       0.40339    0.48228    0.32837   1.00
C3       0.49298    0.61973    0.35176   1.00
H1       0.50431    0.66526    0.35177   1.00
C4       0.45966    0.48726    0.35232   1.00
C5       0.44073    0.41273    0.35312   1.00
H2       0.39976    0.38741    0.36094   1.00
H2       0.43332    0.39463    0.33962   1.00
H2       0.47702    0.40901    0.35933   1.00
C4       0.52017    0.59696    0.36650   1.00
C5       0.56787    0.64557    0.38328   1.00
H2       0.61448    0.66381    0.37926   1.00
H2       0.55857    0.68209    0.38528   1.00
H2       0.55999    0.62069    0.39568   1.00
C6       0.50265    0.52969    0.36715   1.00
C6       0.53072    0.50458    0.38308   1.00
C4       0.49483    0.47707    0.40086   1.00
C5       0.43226    0.48028    0.40513   1.00
H2       0.39322    0.43960    0.40023   1.00
H2       0.42797    0.48400    0.41944   1.00
H2       0.43519    0.51941    0.39844   1.00
C4       0.59286    0.50827    0.37936   1.00
C5       0.63416    0.53713    0.35986   1.00
H2       0.66369    0.58559    0.36128   1.00
H2       0.66108    0.51598    0.35740   1.00
H2       0.60367    0.52825    0.34872   1.00
C3       0.52096    0.45108    0.41505   1.00
H1       0.49752    0.43352    0.42718   1.00
C3       0.61577    0.47872    0.39456   1.00
H1       0.65651    0.47912    0.39248   1.00
C2       0.58037    0.45063    0.41178   1.00
C2       0.11669    0.20612    0.17067   1.00
C3       0.10033    0.25483    0.17131   1.00
H1       0.07005    0.25444    0.16171   1.00
C3       0.15964    0.20658    0.18510   1.00
H1       0.17097    0.17238    0.18511   1.00
C4       0.12632    0.30573    0.18566   1.00
C5       0.10739    0.36133    0.18646   1.00
H2       0.06642    0.34568    0.19428   1.00
H2       0.09998    0.37202    0.17296   1.00
H2       0.14368    0.40134    0.19267   1.00
C4       0.18683    0.25654    0.19984   1.00
C5       0.23453    0.25563    0.21662   1.00
H2       0.28114    0.28400    0.21260   1.00
H2       0.22523    0.20981    0.21862   1.00
H2       0.22665    0.27263    0.22902   1.00
C6       0.16931    0.30629    0.20049   1.00
C6       0.19738    0.35947    0.21642   1.00
C4       0.16149    0.35109    0.23420   1.00
C5       0.09892    0.28531    0.23847   1.00
H2       0.05988    0.28695    0.23357   1.00
H2       0.09463    0.27730    0.25278   1.00
H2       0.10185    0.24911    0.23178   1.00
C4       0.25952    0.41792    0.21270   1.00
C5       0.30082    0.43036    0.19320   1.00
H2       0.33035    0.41143    0.19462   1.00
H2       0.32774    0.47843    0.19074   1.00
H2       0.27033    0.40875    0.18206   1.00
C3       0.18762    0.40321    0.24839   1.00
H1       0.16418    0.39733    0.26052   1.00
C3       0.28243    0.47038    0.22790   1.00
H1       0.32317    0.51072    0.22582   1.00
C2       0.24703    0.46307    0.24512   1.00
C2       0.79388    0.91058    0.17067   1.00
C3       0.74517    0.84551    0.17131   1.00
H1       0.74556    0.81562    0.16171   1.00
C3       0.79342    0.95307    0.18510   1.00
H1       0.82762    0.99860    0.18511   1.00
C4       0.69427    0.82060    0.18566   1.00
C5       0.63867    0.74607    0.18646   1.00
H2       0.65432    0.72075    0.19428   1.00
H2       0.62798    0.72797    0.17296   1.00
H2       0.59866    0.74235    0.19267   1.00
C4       0.74346    0.93030    0.19984   1.00
C5       0.74437    0.97891    0.21662   1.00
H2       0.71600    0.99715    0.21260   1.00
H2       0.79019    0.01543    0.21862   1.00
H2       0.72737    0.95403    0.22902   1.00
C6       0.69371    0.86303    0.20049   1.00
C6       0.64053    0.83792    0.21642   1.00
C4       0.64891    0.81041    0.23420   1.00
C5       0.71469    0.81362    0.23847   1.00
H2       0.71305    0.77294    0.23357   1.00
H2       0.72270    0.81734    0.25278   1.00
H2       0.75089    0.85275    0.23178   1.00
C4       0.58208    0.84161    0.21270   1.00
C5       0.56964    0.87047    0.19320   1.00
H2       0.58857    0.91893    0.19462   1.00
H2       0.52157    0.84932    0.19074   1.00
H2       0.59125    0.86159    0.18206   1.00
C3       0.59679    0.78442    0.24839   1.00
H1       0.60267    0.76686    0.26052   1.00
C3       0.52962    0.81206    0.22790   1.00
H1       0.48928    0.81246    0.22582   1.00
C2       0.53693    0.78397    0.24512   1.00
C2       0.08942    0.88331    0.17067   1.00
C3       0.15449    0.89967    0.17131   1.00
H1       0.18438    0.92995    0.16171   1.00
C3       0.04693    0.84036    0.18510   1.00
H1       0.00140    0.82903    0.18511   1.00
C4       0.17940    0.87368    0.18566   1.00
C5       0.25393    0.89261    0.18646   1.00
H2       0.27925    0.93358    0.19428   1.00
H2       0.27203    0.90002    0.17296   1.00
H2       0.25765    0.85632    0.19267   1.00
C4       0.06970    0.81317    0.19984   1.00
C5       0.02109    0.76547    0.21662   1.00
H2       0.00285    0.71886    0.21260   1.00
H2       0.98457    0.77477    0.21862   1.00
H2       0.04597    0.77335    0.22902   1.00
C6       0.13697    0.83069    0.20049   1.00
C6       0.16208    0.80262    0.21642   1.00
C4       0.18959    0.83851    0.23420   1.00
C5       0.18638    0.90108    0.23847   1.00
H2       0.22706    0.94012    0.23357   1.00
H2       0.18266    0.90537    0.25278   1.00
H2       0.14725    0.89815    0.23178   1.00
C4       0.15839    0.74048    0.21270   1.00
C5       0.12953    0.69918    0.19320   1.00
H2       0.08107    0.66965    0.19462   1.00
H2       0.15068    0.67226    0.19074   1.00
H2       0.13841    0.72967    0.18206   1.00
C3       0.21558    0.81238    0.24839   1.00
H1       0.23314    0.83582    0.26052   1.00
C3       0.18794    0.71757    0.22790   1.00
H1       0.18754    0.67683    0.22582   1.00
C2       0.21603    0.75297    0.24512   1.00
C2       0.87278    0.45003    0.66267   1.00
C3       0.92149    0.43367    0.66203   1.00
H1       0.92110    0.40339    0.67163   1.00
C3       0.87324    0.49298    0.64824   1.00
H1       0.83904    0.50431    0.64823   1.00
C4       0.97239    0.45966    0.64768   1.00
C5       0.02799    0.44073    0.64688   1.00
H2       0.01234    0.39976    0.63906   1.00
H2       0.03868    0.43332    0.66038   1.00
H2       0.06800    0.47702    0.64067   1.00
C4       0.92320    0.52017    0.63350   1.00
C5       0.92229    0.56787    0.61672   1.00
H2       0.95066    0.61448    0.62074   1.00
H2       0.87647    0.55857    0.61472   1.00
H2       0.93929    0.55999    0.60432   1.00
C6       0.97295    0.50265    0.63285   1.00
C6       0.02613    0.53072    0.61692   1.00
C4       0.01775    0.49483    0.59914   1.00
C5       0.95197    0.43226    0.59487   1.00
H2       0.95361    0.39322    0.59977   1.00
H2       0.94396    0.42797    0.58056   1.00
H2       0.91577    0.43519    0.60156   1.00
C4       0.08458    0.59286    0.62064   1.00
C5       0.09702    0.63416    0.64014   1.00
H2       0.07809    0.66369    0.63872   1.00
H2       0.14509    0.66108    0.64260   1.00
H2       0.07541    0.60367    0.65128   1.00
C3       0.06987    0.52096    0.58495   1.00
H1       0.06399    0.49752    0.57282   1.00
C3       0.13704    0.61577    0.60544   1.00
H1       0.17738    0.65651    0.60752   1.00
C2       0.12973    0.58037    0.58822   1.00
C2       0.57724    0.12722    0.66267   1.00
C3       0.51217    0.07851    0.66203   1.00
H1       0.48228    0.07890    0.67163   1.00
C3       0.61973    0.12676    0.64824   1.00
H1       0.66526    0.16096    0.64823   1.00
C4       0.48726    0.02761    0.64768   1.00
C5       0.41273    0.97201    0.64688   1.00
H2       0.38741    0.98766    0.63906   1.00
H2       0.39463    0.96132    0.66038   1.00
H2       0.40901    0.93200    0.64067   1.00
C4       0.59696    0.07680    0.63350   1.00
C5       0.64557    0.07771    0.61672   1.00
H2       0.66381    0.04934    0.62074   1.00
H2       0.68209    0.12353    0.61472   1.00
H2       0.62069    0.06071    0.60432   1.00
C6       0.52969    0.02705    0.63285   1.00
C6       0.50458    0.97387    0.61692   1.00
C4       0.47707    0.98225    0.59914   1.00
C5       0.48028    0.04803    0.59487   1.00
H2       0.43960    0.04639    0.59977   1.00
H2       0.48400    0.05604    0.58056   1.00
H2       0.51941    0.08423    0.60156   1.00
C4       0.50827    0.91542    0.62064   1.00
C5       0.53713    0.90298    0.64014   1.00
H2       0.58559    0.92191    0.63872   1.00
H2       0.51598    0.85491    0.64260   1.00
H2       0.52825    0.92459    0.65128   1.00
C3       0.45108    0.93013    0.58495   1.00
H1       0.43352    0.93601    0.57282   1.00
C3       0.47872    0.86296    0.60544   1.00
H1       0.47912    0.82262    0.60752   1.00
C2       0.45063    0.87027    0.58822   1.00
C2       0.54997    0.42276    0.66267   1.00
C3       0.56633    0.48783    0.66203   1.00
H1       0.59661    0.51772    0.67163   1.00
C3       0.50702    0.38027    0.64824   1.00
H1       0.49569    0.33474    0.64823   1.00
C4       0.54034    0.51274    0.64768   1.00
C5       0.55927    0.58727    0.64688   1.00
H2       0.60024    0.61259    0.63906   1.00
H2       0.56668    0.60537    0.66038   1.00
H2       0.52298    0.59099    0.64067   1.00
C4       0.47983    0.40304    0.63350   1.00
C5       0.43213    0.35443    0.61672   1.00
H2       0.38552    0.33619    0.62074   1.00
H2       0.44143    0.31791    0.61472   1.00
H2       0.44001    0.37931    0.60432   1.00
C6       0.49735    0.47031    0.63285   1.00
C6       0.46928    0.49542    0.61692   1.00
C4       0.50517    0.52293    0.59914   1.00
C5       0.56774    0.51972    0.59487   1.00
H2       0.60678    0.56040    0.59977   1.00
H2       0.57203    0.51600    0.58056   1.00
H2       0.56481    0.48059    0.60156   1.00
C4       0.40714    0.49173    0.62064   1.00
C5       0.36584    0.46287    0.64014   1.00
H2       0.33631    0.41441    0.63872   1.00
H2       0.33892    0.48402    0.64260   1.00
H2       0.39633    0.47175    0.65128   1.00
C3       0.47904    0.54892    0.58495   1.00
H1       0.50248    0.56648    0.57282   1.00
C3       0.38423    0.52128    0.60544   1.00
H1       0.34349    0.52088    0.60752   1.00
C2       0.41963    0.54937    0.58822   1.00
C2       0.54997    0.12722    0.16267   1.00
C3       0.56633    0.07851    0.16203   1.00
H1       0.59661    0.07890    0.17163   1.00
C3       0.50702    0.12676    0.14824   1.00
H1       0.49569    0.16096    0.14823   1.00
C4       0.54034    0.02761    0.14768   1.00
C5       0.55927    0.97201    0.14688   1.00
H2       0.60024    0.98766    0.13906   1.00
H2       0.56668    0.96132    0.16038   1.00
H2       0.52298    0.93200    0.14067   1.00
C4       0.47983    0.07680    0.13350   1.00
C5       0.43213    0.07771    0.11672   1.00
H2       0.38552    0.04934    0.12074   1.00
H2       0.44143    0.12353    0.11472   1.00
H2       0.44001    0.06071    0.10432   1.00
C6       0.49735    0.02705    0.13285   1.00
C6       0.46928    0.97387    0.11692   1.00
C4       0.50517    0.98225    0.09914   1.00
C5       0.56774    0.04803    0.09487   1.00
H2       0.60678    0.04639    0.09977   1.00
H2       0.57203    0.05604    0.08056   1.00
H2       0.56481    0.08423    0.10156   1.00
C4       0.40714    0.91542    0.12064   1.00
C5       0.36584    0.90298    0.14014   1.00
H2       0.33631    0.92191    0.13872   1.00
H2       0.33892    0.85491    0.14260   1.00
H2       0.39633    0.92459    0.15128   1.00
C3       0.47904    0.93013    0.08495   1.00
H1       0.50248    0.93601    0.07282   1.00
C3       0.38423    0.86296    0.10544   1.00
H1       0.34349    0.82262    0.10752   1.00
C2       0.41963    0.87027    0.08822   1.00
C2       0.87278    0.42276    0.16267   1.00
C3       0.92149    0.48783    0.16203   1.00
H1       0.92110    0.51772    0.17163   1.00
C3       0.87324    0.38027    0.14824   1.00
H1       0.83904    0.33474    0.14823   1.00
C4       0.97239    0.51274    0.14768   1.00
C5       0.02799    0.58727    0.14688   1.00
H2       0.01234    0.61259    0.13906   1.00
H2       0.03868    0.60537    0.16038   1.00
H2       0.06800    0.59099    0.14067   1.00
C4       0.92320    0.40304    0.13350   1.00
C5       0.92229    0.35443    0.11672   1.00
H2       0.95066    0.33619    0.12074   1.00
H2       0.87647    0.31791    0.11472   1.00
H2       0.93929    0.37931    0.10432   1.00
C6       0.97295    0.47031    0.13285   1.00
C6       0.02613    0.49542    0.11692   1.00
C4       0.01775    0.52293    0.09914   1.00
C5       0.95197    0.51972    0.09487   1.00
H2       0.95361    0.56040    0.09977   1.00
H2       0.94396    0.51600    0.08056   1.00
H2       0.91577    0.48059    0.10156   1.00
C4       0.08458    0.49173    0.12064   1.00
C5       0.09702    0.46287    0.14014   1.00
H2       0.07809    0.41441    0.13872   1.00
H2       0.14509    0.48402    0.14260   1.00
H2       0.07541    0.47175    0.15128   1.00
C3       0.06987    0.54892    0.08495   1.00
H1       0.06399    0.56648    0.07282   1.00
C3       0.13704    0.52128    0.10544   1.00
H1       0.17738    0.52088    0.10752   1.00
C2       0.12973    0.54937    0.08822   1.00
C2       0.57724    0.45003    0.16267   1.00
C3       0.51217    0.43367    0.16203   1.00
H1       0.48228    0.40339    0.17163   1.00
C3       0.61973    0.49298    0.14824   1.00
H1       0.66526    0.50431    0.14823   1.00
C4       0.48726    0.45966    0.14768   1.00
C5       0.41273    0.44073    0.14688   1.00
H2       0.38741    0.39976    0.13906   1.00
H2       0.39463    0.43332    0.16038   1.00
H2       0.40901    0.47702    0.14067   1.00
C4       0.59696    0.52017    0.13350   1.00
C5       0.64557    0.56787    0.11672   1.00
H2       0.66381    0.61448    0.12074   1.00
H2       0.68209    0.55857    0.11472   1.00
H2       0.62069    0.55999    0.10432   1.00
C6       0.52969    0.50265    0.13285   1.00
C6       0.50458    0.53072    0.11692   1.00
C4       0.47707    0.49483    0.09914   1.00
C5       0.48028    0.43226    0.09487   1.00
H2       0.43960    0.39322    0.09977   1.00
H2       0.48400    0.42797    0.08056   1.00
H2       0.51941    0.43519    0.10156   1.00
C4       0.50827    0.59286    0.12064   1.00
C5       0.53713    0.63416    0.14014   1.00
H2       0.58559    0.66369    0.13872   1.00
H2       0.51598    0.66108    0.14260   1.00
H2       0.52825    0.60367    0.15128   1.00
C3       0.45108    0.52096    0.08495   1.00
H1       0.43352    0.49752    0.07282   1.00
C3       0.47872    0.61577    0.10544   1.00
H1       0.47912    0.65651    0.10752   1.00
C2       0.45063    0.58037    0.08822   1.00
C2       0.79388    0.88331    0.67067   1.00
C3       0.74517    0.89967    0.67131   1.00
H1       0.74556    0.92995    0.66171   1.00
C3       0.79342    0.84036    0.68510   1.00
H1       0.82762    0.82903    0.68511   1.00
C4       0.69427    0.87368    0.68566   1.00
C5       0.63867    0.89261    0.68646   1.00
H2       0.65432    0.93358    0.69428   1.00
H2       0.62798    0.90002    0.67296   1.00
H2       0.59866    0.85632    0.69267   1.00
C4       0.74346    0.81317    0.69984   1.00
C5       0.74437    0.76547    0.71662   1.00
H2       0.71600    0.71886    0.71260   1.00
H2       0.79019    0.77477    0.71862   1.00
H2       0.72737    0.77335    0.72902   1.00
C6       0.69371    0.83069    0.70049   1.00
C6       0.64053    0.80262    0.71642   1.00
C4       0.64891    0.83851    0.73420   1.00
C5       0.71469    0.90108    0.73847   1.00
H2       0.71305    0.94012    0.73357   1.00
H2       0.72270    0.90537    0.75278   1.00
H2       0.75089    0.89815    0.73178   1.00
C4       0.58208    0.74048    0.71270   1.00
C5       0.56964    0.69918    0.69320   1.00
H2       0.58857    0.66965    0.69462   1.00
H2       0.52157    0.67226    0.69074   1.00
H2       0.59125    0.72967    0.68206   1.00
C3       0.59679    0.81238    0.74839   1.00
H1       0.60267    0.83582    0.76052   1.00
C3       0.52962    0.71757    0.72790   1.00
H1       0.48928    0.67683    0.72582   1.00
C2       0.53693    0.75297    0.74512   1.00
C2       0.08942    0.20612    0.67067   1.00
C3       0.15449    0.25483    0.67131   1.00
H1       0.18438    0.25444    0.66171   1.00
C3       0.04693    0.20658    0.68510   1.00
H1       0.00140    0.17238    0.68511   1.00
C4       0.17940    0.30573    0.68566   1.00
C5       0.25393    0.36133    0.68646   1.00
H2       0.27925    0.34568    0.69428   1.00
H2       0.27203    0.37202    0.67296   1.00
H2       0.25765    0.40134    0.69267   1.00
C4       0.06970    0.25654    0.69984   1.00
C5       0.02109    0.25563    0.71662   1.00
H2       0.00285    0.28400    0.71260   1.00
H2       0.98457    0.20981    0.71862   1.00
H2       0.04597    0.27263    0.72902   1.00
C6       0.13697    0.30629    0.70049   1.00
C6       0.16208    0.35947    0.71642   1.00
C4       0.18959    0.35109    0.73420   1.00
C5       0.18638    0.28531    0.73847   1.00
H2       0.22706    0.28695    0.73357   1.00
H2       0.18266    0.27730    0.75278   1.00
H2       0.14725    0.24911    0.73178   1.00
C4       0.15839    0.41792    0.71270   1.00
C5       0.12953    0.43036    0.69320   1.00
H2       0.08107    0.41143    0.69462   1.00
H2       0.15068    0.47843    0.69074   1.00
H2       0.13841    0.40875    0.68206   1.00
C3       0.21558    0.40321    0.74839   1.00
H1       0.23314    0.39733    0.76052   1.00
C3       0.18794    0.47038    0.72790   1.00
H1       0.18754    0.51072    0.72582   1.00
C2       0.21603    0.46307    0.74512   1.00
C2       0.11669    0.91058    0.67067   1.00
C3       0.10033    0.84551    0.67131   1.00
H1       0.07005    0.81562    0.66171   1.00
C3       0.15964    0.95307    0.68510   1.00
H1       0.17097    0.99860    0.68511   1.00
C4       0.12632    0.82060    0.68566   1.00
C5       0.10739    0.74607    0.68646   1.00
H2       0.06642    0.72075    0.69428   1.00
H2       0.09998    0.72797    0.67296   1.00
H2       0.14368    0.74235    0.69267   1.00
C4       0.18683    0.93030    0.69984   1.00
C5       0.23453    0.97891    0.71662   1.00
H2       0.28114    0.99715    0.71260   1.00
H2       0.22523    0.01543    0.71862   1.00
H2       0.22665    0.95403    0.72902   1.00
C6       0.16931    0.86303    0.70049   1.00
C6       0.19738    0.83792    0.71642   1.00
C4       0.16149    0.81041    0.73420   1.00
C5       0.09892    0.81362    0.73847   1.00
H2       0.05988    0.77294    0.73357   1.00
H2       0.09463    0.81734    0.75278   1.00
H2       0.10185    0.85275    0.73178   1.00
C4       0.25952    0.84161    0.71270   1.00
C5       0.30082    0.87047    0.69320   1.00
H2       0.33035    0.91893    0.69462   1.00
H2       0.32774    0.84932    0.69074   1.00
H2       0.27033    0.86159    0.68206   1.00
C3       0.18762    0.78442    0.74839   1.00
H1       0.16418    0.76686    0.76052   1.00
C3       0.28243    0.81206    0.72790   1.00
H1       0.32317    0.81246    0.72582   1.00
C2       0.24703    0.78397    0.74512   1.00
