data_IRMOF10_interpen_symm_ligand1lp_symm_k

_audit_creation_method             'generated by an auxiliary program of Tobunporous'

_symmetry_space_group_name_H-M     'P 1'
_symmetry_Int_Tables_number        1
_symmetry_cell_setting             triclinic

_cell_length_a                    22.6523
_cell_length_b                    22.6523
_cell_length_c                    65.9502
_cell_angle_alpha                 90.0000
_cell_angle_beta                  90.0000
_cell_angle_gamma                 120.0000

loop_
_atom_site_label
_atom_site_fract_x
_atom_site_fract_y
_atom_site_fract_z
_atom_site_occupancy
O1       0.00000    -0.00000   0.62500   1.00
Zn      0.00000    -0.00000   0.59589   1.00
Zn      0.94848    1.04288    0.63392   1.00
Zn      0.09439    0.05152    0.63392   1.00
Zn      -0.04288   0.90561    0.63392   1.00
O2       0.93860    0.02610    0.58587   1.00
O2       0.08750    0.06140    0.58587   1.00
O2       -0.02610   0.91250    0.58587   1.00
O2       0.91305    0.07161    0.61181   1.00
O2       0.00462    0.12022    0.65110   1.00
O2       0.87413    0.98074    0.65071   1.00
O2       0.15856    0.08695    0.61181   1.00
O2       0.10660    0.12587    0.65071   1.00
O2       0.11559    0.99538    0.65110   1.00
O2       -0.07161   0.84144    0.61181   1.00
O2       0.87978    0.88441    0.65110   1.00
O2       0.01926    0.89340    0.65071   1.00
C1       0.91390    0.06020    0.59358   1.00
C1       0.14630    0.08610    0.59358   1.00
C1       -0.06020   0.85370    0.59358   1.00
C1       0.06663    0.14397    0.65673   1.00
C1       0.85603    0.92267    0.65673   1.00
C1       0.07733    0.93337    0.65673   1.00
O1       -0.00000   0.00000    0.87500   1.00
Zn      -0.00000   0.00000    0.90411   1.00
Zn      1.04288    0.94848    0.86608   1.00
Zn      0.05152    0.09439    0.86608   1.00
Zn      0.90561    -0.04288   0.86608   1.00
O2       0.02610    0.93860    0.91413   1.00
O2       0.06140    0.08750    0.91413   1.00
O2       0.91250    -0.02610   0.91413   1.00
O2       0.07161    0.91305    0.88819   1.00
O2       0.12022    0.00462    0.84890   1.00
O2       0.98074    0.87413    0.84929   1.00
O2       0.08695    0.15856    0.88819   1.00
O2       0.12587    0.10660    0.84929   1.00
O2       0.99538    0.11559    0.84890   1.00
O2       0.84144    -0.07161   0.88819   1.00
O2       0.88441    0.87978    0.84890   1.00
O2       0.89340    0.01926    0.84929   1.00
C1       0.06020    0.91390    0.90642   1.00
C1       0.08610    0.14630    0.90642   1.00
C1       0.85370    -0.06020   0.90642   1.00
C1       0.14397    0.06663    0.84327   1.00
C1       0.92267    0.85603    0.84327   1.00
C1       0.93337    0.07733    0.84327   1.00
O1       0.00000    0.00000    0.37500   1.00
Zn      0.00000    0.00000    0.40411   1.00
Zn      0.05152    -0.04288   0.36608   1.00
Zn      0.90561    0.94848    0.36608   1.00
Zn      1.04288    0.09439    0.36608   1.00
O2       0.06140    -0.02610   0.41413   1.00
O2       0.91250    0.93860    0.41413   1.00
O2       0.02610    0.08750    0.41413   1.00
O2       0.08695    -0.07161   0.38819   1.00
O2       0.99538    0.87978    0.34890   1.00
O2       0.12587    0.01926    0.34929   1.00
O2       0.84144    0.91305    0.38819   1.00
O2       0.89340    0.87413    0.34929   1.00
O2       0.88441    0.00462    0.34890   1.00
O2       0.07161    0.15856    0.38819   1.00
O2       0.12022    0.11559    0.34890   1.00
O2       0.98074    0.10660    0.34929   1.00
C1       0.08610    -0.06020   0.40642   1.00
C1       0.85370    0.91390    0.40642   1.00
C1       0.06020    0.14630    0.40642   1.00
C1       0.93337    0.85603    0.34327   1.00
C1       0.14397    0.07733    0.34327   1.00
C1       0.92267    0.06663    0.34327   1.00
O1       0.00000    0.00000    0.12500   1.00
Zn      0.00000    0.00000    0.09589   1.00
Zn      -0.04288   0.05152    0.13392   1.00
Zn      0.94848    0.90561    0.13392   1.00
Zn      0.09439    1.04288    0.13392   1.00
O2       -0.02610   0.06140    0.08587   1.00
O2       0.93860    0.91250    0.08587   1.00
O2       0.08750    0.02610    0.08587   1.00
O2       -0.07161   0.08695    0.11181   1.00
O2       0.87978    0.99538    0.15110   1.00
O2       0.01926    0.12587    0.15071   1.00
O2       0.91305    0.84144    0.11181   1.00
O2       0.87413    0.89340    0.15071   1.00
O2       0.00462    0.88441    0.15110   1.00
O2       0.15856    0.07161    0.11181   1.00
O2       0.11559    0.12022    0.15110   1.00
O2       0.10660    0.98074    0.15071   1.00
C1       -0.06020   0.08610    0.09358   1.00
C1       0.91390    0.85370    0.09358   1.00
C1       0.14630    0.06020    0.09358   1.00
C1       0.85603    0.93337    0.15673   1.00
C1       0.07733    0.14397    0.15673   1.00
C1       0.06663    0.92267    0.15673   1.00
O1       0.66667    0.33333    0.95833   1.00
Zn      0.66667    0.33333    0.92922   1.00
Zn      0.61515    0.37621    0.96725   1.00
Zn      0.76106    0.38485    0.96725   1.00
Zn      -0.37621   0.23894    0.96725   1.00
O2       0.60527    0.35943    0.91920   1.00
O2       0.75417    0.39473    0.91920   1.00
O2       0.64057    0.24583    0.91920   1.00
O2       0.57972    0.40494    0.94514   1.00
O2       0.67129    0.45355    0.98443   1.00
O2       0.54080    0.31407    0.98404   1.00
O2       0.82523    0.42028    0.94514   1.00
O2       0.77327    0.45920    0.98404   1.00
O2       -0.21774   0.32871    0.98443   1.00
O2       0.59506    0.17477    0.94514   1.00
O2       0.54645    0.21774    0.98443   1.00
O2       -0.31407   0.22673    0.98404   1.00
C1       0.58057    0.39353    0.92691   1.00
C1       0.81297    0.41943    0.92691   1.00
C1       0.60647    0.18703    0.92691   1.00
C1       0.73330    0.47730    0.99006   1.00
C1       0.52270    0.25600    0.99006   1.00
C1       -0.25600   0.26670    0.99006   1.00
O1       0.66667    0.33333    0.20833   1.00
Zn      0.66667    0.33333    0.23744   1.00
Zn      0.70954    0.28182    0.19942   1.00
Zn      0.71818    0.42773    0.19942   1.00
Zn      0.57227    0.29046    0.19942   1.00
O2       0.69277    0.27193    0.24746   1.00
O2       0.72807    0.42083    0.24746   1.00
O2       0.57917    0.30723    0.24746   1.00
O2       0.73828    0.24638    0.22152   1.00
O2       0.78688    0.33796    0.18224   1.00
O2       0.64740    0.20747    0.18263   1.00
O2       0.75362    0.49189    0.22152   1.00
O2       0.79253    0.43994    0.18263   1.00
O2       0.66204    0.44893    0.18224   1.00
O2       0.50811    0.26172    0.22152   1.00
O2       0.55107    0.21312    0.18224   1.00
O2       0.56006    0.35260    0.18263   1.00
C1       0.72687    0.24723    0.23975   1.00
C1       0.75277    0.47963    0.23975   1.00
C1       0.52037    0.27313    0.23975   1.00
C1       0.81063    0.39997    0.17661   1.00
C1       0.58933    0.18937    0.17661   1.00
C1       0.60003    0.41067    0.17661   1.00
O1       0.66667    0.33333    0.70833   1.00
Zn      0.66667    0.33333    0.73744   1.00
Zn      0.71818    0.29046    0.69942   1.00
Zn      0.57227    0.28182    0.69942   1.00
Zn      0.70954    0.42773    0.69942   1.00
O2       0.72807    0.30723    0.74746   1.00
O2       0.57917    0.27193    0.74746   1.00
O2       0.69277    0.42083    0.74746   1.00
O2       0.75362    0.26172    0.72152   1.00
O2       0.66204    0.21312    0.68224   1.00
O2       0.79253    0.35260    0.68263   1.00
O2       0.50811    0.24638    0.72152   1.00
O2       0.56006    0.20747    0.68263   1.00
O2       0.55107    0.33796    0.68224   1.00
O2       0.73828    0.49189    0.72152   1.00
O2       0.78688    0.44893    0.68224   1.00
O2       0.64740    0.43994    0.68263   1.00
C1       0.75277    0.27313    0.73975   1.00
C1       0.52037    0.24723    0.73975   1.00
C1       0.72687    0.47963    0.73975   1.00
C1       0.60003    0.18937    0.67661   1.00
C1       0.81063    0.41067    0.67661   1.00
C1       0.58933    0.39997    0.67661   1.00
O1       0.66667    0.33333    0.45833   1.00
Zn      0.66667    0.33333    0.42922   1.00
Zn      -0.37621   0.38485    0.46725   1.00
Zn      0.61515    0.23894    0.46725   1.00
Zn      0.76106    0.37621    0.46725   1.00
O2       0.64057    0.39473    0.41920   1.00
O2       0.60527    0.24583    0.41920   1.00
O2       0.75417    0.35943    0.41920   1.00
O2       0.59506    0.42028    0.44514   1.00
O2       0.54645    0.32871    0.48443   1.00
O2       -0.31407   0.45920    0.48404   1.00
O2       0.57972    0.17477    0.44514   1.00
O2       0.54080    0.22673    0.48404   1.00
O2       0.67129    0.21774    0.48443   1.00
O2       0.82523    0.40494    0.44514   1.00
O2       -0.21774   0.45355    0.48443   1.00
O2       0.77327    0.31407    0.48404   1.00
C1       0.60647    0.41943    0.42691   1.00
C1       0.58057    0.18703    0.42691   1.00
C1       0.81297    0.39353    0.42691   1.00
C1       0.52270    0.26670    0.49006   1.00
C1       -0.25600   0.47730    0.49006   1.00
C1       0.73330    0.25600    0.49006   1.00
O1       0.33333    0.66667    0.29167   1.00
Zn      0.33333    0.66667    0.26256   1.00
Zn      0.28182    0.70954    0.30058   1.00
Zn      0.42773    0.71818    0.30058   1.00
Zn      0.29046    0.57227    0.30058   1.00
O2       0.27193    0.69277    0.25254   1.00
O2       0.42083    0.72807    0.25254   1.00
O2       0.30723    0.57917    0.25254   1.00
O2       0.24638    0.73828    0.27848   1.00
O2       0.33796    0.78688    0.31776   1.00
O2       0.20747    0.64740    0.31737   1.00
O2       0.49189    0.75362    0.27848   1.00
O2       0.43994    0.79253    0.31737   1.00
O2       0.44893    0.66204    0.31776   1.00
O2       0.26172    0.50811    0.27848   1.00
O2       0.21312    0.55107    0.31776   1.00
O2       0.35260    0.56006    0.31737   1.00
C1       0.24723    0.72687    0.26025   1.00
C1       0.47963    0.75277    0.26025   1.00
C1       0.27313    0.52037    0.26025   1.00
C1       0.39997    0.81063    0.32339   1.00
C1       0.18937    0.58933    0.32339   1.00
C1       0.41067    0.60003    0.32339   1.00
O1       0.33333    0.66667    0.54167   1.00
Zn      0.33333    0.66667    0.57078   1.00
Zn      0.37621    0.61515    0.53275   1.00
Zn      0.38485    0.76106    0.53275   1.00
Zn      0.23894    -0.37621   0.53275   1.00
O2       0.35943    0.60527    0.58080   1.00
O2       0.39473    0.75417    0.58080   1.00
O2       0.24583    0.64057    0.58080   1.00
O2       0.40494    0.57972    0.55486   1.00
O2       0.45355    0.67129    0.51557   1.00
O2       0.31407    0.54080    0.51596   1.00
O2       0.42028    0.82523    0.55486   1.00
O2       0.45920    0.77327    0.51596   1.00
O2       0.32871    -0.21774   0.51557   1.00
O2       0.17477    0.59506    0.55486   1.00
O2       0.21774    0.54645    0.51557   1.00
O2       0.22673    -0.31407   0.51596   1.00
C1       0.39353    0.58057    0.57309   1.00
C1       0.41943    0.81297    0.57309   1.00
C1       0.18703    0.60647    0.57309   1.00
C1       0.47730    0.73330    0.50994   1.00
C1       0.25600    0.52270    0.50994   1.00
C1       0.26670    -0.25600   0.50994   1.00
O1       0.33333    0.66667    0.04167   1.00
Zn      0.33333    0.66667    0.07078   1.00
Zn      0.38485    -0.37621   0.03275   1.00
Zn      0.23894    0.61515    0.03275   1.00
Zn      0.37621    0.76106    0.03275   1.00
O2       0.39473    0.64057    0.08080   1.00
O2       0.24583    0.60527    0.08080   1.00
O2       0.35943    0.75417    0.08080   1.00
O2       0.42028    0.59506    0.05486   1.00
O2       0.32871    0.54645    0.01557   1.00
O2       0.45920    -0.31407   0.01596   1.00
O2       0.17477    0.57972    0.05486   1.00
O2       0.22673    0.54080    0.01596   1.00
O2       0.21774    0.67129    0.01557   1.00
O2       0.40494    0.82523    0.05486   1.00
O2       0.45355    -0.21774   0.01557   1.00
O2       0.31407    0.77327    0.01596   1.00
C1       0.41943    0.60647    0.07309   1.00
C1       0.18703    0.58057    0.07309   1.00
C1       0.39353    0.81297    0.07309   1.00
C1       0.26670    0.52270    0.00994   1.00
C1       0.47730    -0.25600   0.00994   1.00
C1       0.25600    0.73330    0.00994   1.00
O1       0.33333    0.66667    0.79167   1.00
Zn      0.33333    0.66667    0.76256   1.00
Zn      0.29046    0.71818    0.80058   1.00
Zn      0.28182    0.57227    0.80058   1.00
Zn      0.42773    0.70954    0.80058   1.00
O2       0.30723    0.72807    0.75254   1.00
O2       0.27193    0.57917    0.75254   1.00
O2       0.42083    0.69277    0.75254   1.00
O2       0.26172    0.75362    0.77848   1.00
O2       0.21312    0.66204    0.81776   1.00
O2       0.35260    0.79253    0.81737   1.00
O2       0.24638    0.50811    0.77848   1.00
O2       0.20747    0.56006    0.81737   1.00
O2       0.33796    0.55107    0.81776   1.00
O2       0.49189    0.73828    0.77848   1.00
O2       0.44893    0.78688    0.81776   1.00
O2       0.43994    0.64740    0.81737   1.00
C1       0.27313    0.75277    0.76025   1.00
C1       0.24723    0.52037    0.76025   1.00
C1       0.47963    0.72687    0.76025   1.00
C1       0.18937    0.60003    0.82339   1.00
C1       0.41067    0.81063    0.82339   1.00
C1       0.39997    0.58933    0.82339   1.00
C2       -0.20556   0.54355    0.50280   1.00
C3       -0.19686   0.60526    0.49946   1.00
H1       -0.20760   0.61502    0.48675   1.00
C3       -0.19118   0.52973    0.52160   1.00
H1       -0.19788   0.48654    0.52435   1.00
C4       -0.17270   0.65522    0.51410   1.00
C5       -0.16301   0.72576    0.51031   1.00
H2       -0.20507   0.72511    0.51293   1.00
H2       -0.14977   0.73862    0.49648   1.00
H2       -0.12820   0.75808    0.51915   1.00
C4       -0.16702   0.57822    0.53679   1.00
C5       -0.15242   0.56136    0.55841   1.00
H2       -0.10511   0.57486    0.55953   1.00
H2       -0.17986   0.51330    0.56082   1.00
H2       -0.16323   0.58567    0.56823   1.00
C6       -0.15866   0.64155    0.53326   1.00
C6       -0.13378   0.69354    0.54954   1.00
C4       -0.17952   0.70076    0.56174   1.00
C5       -0.25345   0.65104    0.56024   1.00
H2       -0.27403   0.66726    0.55068   1.00
H2       -0.27427   0.64589    0.57324   1.00
H2       -0.25980   0.60778    0.55581   1.00
C4       -0.06376   0.73518    0.55177   1.00
C5       -0.01093   0.73021    0.53851   1.00
H2       -0.00043   0.69752    0.54430   1.00
H2       0.02979    0.77393    0.53783   1.00
H2       -0.02912   0.71573    0.52516   1.00
C3       -0.15461   0.75202    0.57620   1.00
H1       -0.18518   0.75636    0.58466   1.00
C3       -0.04190   0.78825    0.56675   1.00
H1       0.00448    0.81790    0.56847   1.00
C2       -0.08630   0.79640    0.57845   1.00
C2       0.45645    0.25089    0.50280   1.00
C3       0.39474    0.19788    0.49946   1.00
H1       0.38498    0.17738    0.48675   1.00
C3       0.47027    0.27909    0.52160   1.00
H1       0.51346    0.31558    0.52435   1.00
C4       0.34478    0.17208    0.51410   1.00
C5       0.27424    0.11123    0.51031   1.00
H2       0.27489    0.06982    0.51293   1.00
H2       0.26138    0.11161    0.49648   1.00
H2       0.24192    0.11372    0.51915   1.00
C4       0.42178    0.25476    0.53679   1.00
C5       0.43864    0.28622    0.55841   1.00
H2       0.42514    0.32003    0.55953   1.00
H2       0.48670    0.30684    0.56082   1.00
H2       0.41433    0.25110    0.56823   1.00
C6       0.35845    0.19979    0.53326   1.00
C6       0.30646    0.17268    0.54954   1.00
C4       0.29924    0.11972    0.56174   1.00
C5       0.34896    0.09551    0.56024   1.00
H2       0.33274    0.05871    0.55068   1.00
H2       0.35411    0.07984    0.57324   1.00
H2       0.39222    0.13242    0.55581   1.00
C4       0.26482    0.20106    0.55177   1.00
C5       0.26979    0.25886    0.53851   1.00
H2       0.30248    0.30205    0.54430   1.00
H2       0.22607    0.25586    0.53783   1.00
H2       0.28427    0.25515    0.52516   1.00
C3       0.24798    0.09337    0.57620   1.00
H1       0.24364    0.05846    0.58466   1.00
C3       0.21175    0.16985    0.56675   1.00
H1       0.18210    0.18658    0.56847   1.00
C2       0.20360    0.11730    0.57845   1.00
C2       0.74911    0.20556    0.50280   1.00
C3       0.80212    0.19686    0.49946   1.00
H1       0.82262    0.20760    0.48675   1.00
C3       0.72091    0.19118    0.52160   1.00
H1       0.68442    0.19788    0.52435   1.00
C4       0.82792    0.17270    0.51410   1.00
C5       0.88877    0.16301    0.51031   1.00
H2       0.93018    0.20507    0.51293   1.00
H2       0.88839    0.14977    0.49648   1.00
H2       0.88628    0.12820    0.51915   1.00
C4       0.74524    0.16702    0.53679   1.00
C5       0.71378    0.15242    0.55841   1.00
H2       0.67997    0.10511    0.55953   1.00
H2       0.69316    0.17986    0.56082   1.00
H2       0.74890    0.16323    0.56823   1.00
C6       0.80021    0.15866    0.53326   1.00
C6       0.82732    0.13378    0.54954   1.00
C4       0.88028    0.17952    0.56174   1.00
C5       0.90449    0.25345    0.56024   1.00
H2       0.94129    0.27403    0.55068   1.00
H2       0.92016    0.27427    0.57324   1.00
H2       0.86758    0.25980    0.55581   1.00
C4       0.79894    0.06376    0.55177   1.00
C5       0.74114    0.01093    0.53851   1.00
H2       0.69795    0.00043    0.54430   1.00
H2       0.74414    0.97021    0.53783   1.00
H2       0.74485    0.02912    0.52516   1.00
C3       0.90663    0.15461    0.57620   1.00
H1       0.94154    0.18518    0.58466   1.00
C3       0.83015    0.04190    0.56675   1.00
H1       0.81342    0.99552    0.56847   1.00
C2       0.88270    0.08630    0.57845   1.00
C2       0.54355    -0.20556   0.99720   1.00
C3       0.60526    -0.19686   0.00054   1.00
H1       0.61502    -0.20760   0.01325   1.00
C3       0.52973    -0.19118   0.97840   1.00
H1       0.48654    -0.19788   0.97565   1.00
C4       0.65522    -0.17270   0.98590   1.00
C5       0.72576    -0.16301   0.98969   1.00
H2       0.72511    -0.20507   0.98707   1.00
H2       0.73862    -0.14977   0.00352   1.00
H2       0.75808    -0.12820   0.98085   1.00
C4       0.57822    -0.16702   0.96321   1.00
C5       0.56136    -0.15242   0.94159   1.00
H2       0.57486    -0.10511   0.94047   1.00
H2       0.51330    -0.17986   0.93918   1.00
H2       0.58567    -0.16323   0.93177   1.00
C6       0.64155    -0.15866   0.96674   1.00
C6       0.69354    -0.13378   0.95046   1.00
C4       0.70076    -0.17952   0.93826   1.00
C5       0.65104    -0.25345   0.93976   1.00
H2       0.66726    -0.27403   0.94932   1.00
H2       0.64589    -0.27427   0.92676   1.00
H2       0.60778    -0.25980   0.94419   1.00
C4       0.73518    -0.06376   0.94823   1.00
C5       0.73021    -0.01093   0.96149   1.00
H2       0.69752    -0.00043   0.95570   1.00
H2       0.77393    0.02979    0.96217   1.00
H2       0.71573    -0.02912   0.97484   1.00
C3       0.75202    -0.15461   0.92380   1.00
H1       0.75636    -0.18518   0.91534   1.00
C3       0.78825    -0.04190   0.93325   1.00
H1       0.81790    0.00448    0.93153   1.00
C2       0.79640    -0.08630   0.92155   1.00
C2       0.25089    0.45645    0.99720   1.00
C3       0.19788    0.39474    0.00054   1.00
H1       0.17738    0.38498    0.01325   1.00
C3       0.27909    0.47027    0.97840   1.00
H1       0.31558    0.51346    0.97565   1.00
C4       0.17208    0.34478    0.98590   1.00
C5       0.11123    0.27424    0.98969   1.00
H2       0.06982    0.27489    0.98707   1.00
H2       0.11161    0.26138    0.00352   1.00
H2       0.11372    0.24192    0.98085   1.00
C4       0.25476    0.42178    0.96321   1.00
C5       0.28622    0.43864    0.94159   1.00
H2       0.32003    0.42514    0.94047   1.00
H2       0.30684    0.48670    0.93918   1.00
H2       0.25110    0.41433    0.93177   1.00
C6       0.19979    0.35845    0.96674   1.00
C6       0.17268    0.30646    0.95046   1.00
C4       0.11972    0.29924    0.93826   1.00
C5       0.09551    0.34896    0.93976   1.00
H2       0.05871    0.33274    0.94932   1.00
H2       0.07984    0.35411    0.92676   1.00
H2       0.13242    0.39222    0.94419   1.00
C4       0.20106    0.26482    0.94823   1.00
C5       0.25886    0.26979    0.96149   1.00
H2       0.30205    0.30248    0.95570   1.00
H2       0.25586    0.22607    0.96217   1.00
H2       0.25515    0.28427    0.97484   1.00
C3       0.09337    0.24798    0.92380   1.00
H1       0.05846    0.24364    0.91534   1.00
C3       0.16985    0.21175    0.93325   1.00
H1       0.18658    0.18210    0.93153   1.00
C2       0.11730    0.20360    0.92155   1.00
C2       0.20556    0.74911    0.99720   1.00
C3       0.19686    0.80212    0.00054   1.00
H1       0.20760    0.82262    0.01325   1.00
C3       0.19118    0.72091    0.97840   1.00
H1       0.19788    0.68442    0.97565   1.00
C4       0.17270    0.82792    0.98590   1.00
C5       0.16301    0.88877    0.98969   1.00
H2       0.20507    0.93018    0.98707   1.00
H2       0.14977    0.88839    0.00352   1.00
H2       0.12820    0.88628    0.98085   1.00
C4       0.16702    0.74524    0.96321   1.00
C5       0.15242    0.71378    0.94159   1.00
H2       0.10511    0.67997    0.94047   1.00
H2       0.17986    0.69316    0.93918   1.00
H2       0.16323    0.74890    0.93177   1.00
C6       0.15866    0.80021    0.96674   1.00
C6       0.13378    0.82732    0.95046   1.00
C4       0.17952    0.88028    0.93826   1.00
C5       0.25345    0.90449    0.93976   1.00
H2       0.27403    0.94129    0.94932   1.00
H2       0.27427    0.92016    0.92676   1.00
H2       0.25980    0.86758    0.94419   1.00
C4       0.06376    0.79894    0.94823   1.00
C5       0.01093    0.74114    0.96149   1.00
H2       0.00043    0.69795    0.95570   1.00
H2       0.97021    0.74414    0.96217   1.00
H2       0.02912    0.74485    0.97484   1.00
C3       0.15461    0.90663    0.92380   1.00
H1       0.18518    0.94154    0.91534   1.00
C3       0.04190    0.83015    0.93325   1.00
H1       0.99552    0.81342    0.93153   1.00
C2       0.08630    0.88270    0.92155   1.00
C2       0.20556    0.45645    0.49720   1.00
C3       0.19686    0.39474    0.50054   1.00
H1       0.20760    0.38498    0.51325   1.00
C3       0.19118    0.47027    0.47840   1.00
H1       0.19788    0.51346    0.47565   1.00
C4       0.17270    0.34478    0.48590   1.00
C5       0.16301    0.27424    0.48969   1.00
H2       0.20507    0.27489    0.48707   1.00
H2       0.14977    0.26138    0.50352   1.00
H2       0.12820    0.24192    0.48085   1.00
C4       0.16702    0.42178    0.46321   1.00
C5       0.15242    0.43864    0.44159   1.00
H2       0.10511    0.42514    0.44047   1.00
H2       0.17986    0.48670    0.43918   1.00
H2       0.16323    0.41433    0.43177   1.00
C6       0.15866    0.35845    0.46674   1.00
C6       0.13378    0.30646    0.45046   1.00
C4       0.17952    0.29924    0.43826   1.00
C5       0.25345    0.34896    0.43976   1.00
H2       0.27403    0.33274    0.44932   1.00
H2       0.27427    0.35411    0.42676   1.00
H2       0.25980    0.39222    0.44419   1.00
C4       0.06376    0.26482    0.44823   1.00
C5       0.01093    0.26979    0.46149   1.00
H2       0.00043    0.30248    0.45570   1.00
H2       0.97021    0.22607    0.46217   1.00
H2       0.02912    0.28427    0.47484   1.00
C3       0.15461    0.24798    0.42380   1.00
H1       0.18518    0.24364    0.41534   1.00
C3       0.04190    0.21175    0.43325   1.00
H1       0.99552    0.18210    0.43153   1.00
C2       0.08630    0.20360    0.42155   1.00
C2       0.54355    0.74911    0.49720   1.00
C3       0.60526    0.80212    0.50054   1.00
H1       0.61502    0.82262    0.51325   1.00
C3       0.52973    0.72091    0.47840   1.00
H1       0.48654    0.68442    0.47565   1.00
C4       0.65522    0.82792    0.48590   1.00
C5       0.72576    0.88877    0.48969   1.00
H2       0.72511    0.93018    0.48707   1.00
H2       0.73862    0.88839    0.50352   1.00
H2       0.75808    0.88628    0.48085   1.00
C4       0.57822    0.74524    0.46321   1.00
C5       0.56136    0.71378    0.44159   1.00
H2       0.57486    0.67997    0.44047   1.00
H2       0.51330    0.69316    0.43918   1.00
H2       0.58567    0.74890    0.43177   1.00
C6       0.64155    0.80021    0.46674   1.00
C6       0.69354    0.82732    0.45046   1.00
C4       0.70076    0.88028    0.43826   1.00
C5       0.65104    0.90449    0.43976   1.00
H2       0.66726    0.94129    0.44932   1.00
H2       0.64589    0.92016    0.42676   1.00
H2       0.60778    0.86758    0.44419   1.00
C4       0.73518    0.79894    0.44823   1.00
C5       0.73021    0.74114    0.46149   1.00
H2       0.69752    0.69795    0.45570   1.00
H2       0.77393    0.74414    0.46217   1.00
H2       0.71573    0.74485    0.47484   1.00
C3       0.75202    0.90663    0.42380   1.00
H1       0.75636    0.94154    0.41534   1.00
C3       0.78825    0.83015    0.43325   1.00
H1       0.81790    0.81342    0.43153   1.00
C2       0.79640    0.88270    0.42155   1.00
C2       0.25089    -0.20556   0.49720   1.00
C3       0.19788    -0.19686   0.50054   1.00
H1       0.17738    -0.20760   0.51325   1.00
C3       0.27909    -0.19118   0.47840   1.00
H1       0.31558    -0.19788   0.47565   1.00
C4       0.17208    -0.17270   0.48590   1.00
C5       0.11123    -0.16301   0.48969   1.00
H2       0.06982    -0.20507   0.48707   1.00
H2       0.11161    -0.14977   0.50352   1.00
H2       0.11372    -0.12820   0.48085   1.00
C4       0.25476    -0.16702   0.46321   1.00
C5       0.28622    -0.15242   0.44159   1.00
H2       0.32003    -0.10511   0.44047   1.00
H2       0.30684    -0.17986   0.43918   1.00
H2       0.25110    -0.16323   0.43177   1.00
C6       0.19979    -0.15866   0.46674   1.00
C6       0.17268    -0.13378   0.45046   1.00
C4       0.11972    -0.17952   0.43826   1.00
C5       0.09551    -0.25345   0.43976   1.00
H2       0.05871    -0.27403   0.44932   1.00
H2       0.07984    -0.27427   0.42676   1.00
H2       0.13242    -0.25980   0.44419   1.00
C4       0.20106    -0.06376   0.44823   1.00
C5       0.25886    -0.01093   0.46149   1.00
H2       0.30205    -0.00043   0.45570   1.00
H2       0.25586    0.02979    0.46217   1.00
H2       0.25515    -0.02912   0.47484   1.00
C3       0.09337    -0.15461   0.42380   1.00
H1       0.05846    -0.18518   0.41534   1.00
C3       0.16985    -0.04190   0.43325   1.00
H1       0.18658    0.00448    0.43153   1.00
C2       0.11730    -0.08630   0.42155   1.00
C2       0.45645    0.20556    0.00280   1.00
C3       0.39474    0.19686    0.99946   1.00
H1       0.38498    0.20760    0.98675   1.00
C3       0.47027    0.19118    0.02160   1.00
H1       0.51346    0.19788    0.02435   1.00
C4       0.34478    0.17270    0.01410   1.00
C5       0.27424    0.16301    0.01031   1.00
H2       0.27489    0.20507    0.01293   1.00
H2       0.26138    0.14977    0.99648   1.00
H2       0.24192    0.12820    0.01915   1.00
C4       0.42178    0.16702    0.03679   1.00
C5       0.43864    0.15242    0.05841   1.00
H2       0.42514    0.10511    0.05953   1.00
H2       0.48670    0.17986    0.06082   1.00
H2       0.41433    0.16323    0.06823   1.00
C6       0.35845    0.15866    0.03326   1.00
C6       0.30646    0.13378    0.04954   1.00
C4       0.29924    0.17952    0.06174   1.00
C5       0.34896    0.25345    0.06024   1.00
H2       0.33274    0.27403    0.05068   1.00
H2       0.35411    0.27427    0.07324   1.00
H2       0.39222    0.25980    0.05581   1.00
C4       0.26482    0.06376    0.05177   1.00
C5       0.26979    0.01093    0.03851   1.00
H2       0.30248    0.00043    0.04430   1.00
H2       0.22607    0.97021    0.03783   1.00
H2       0.28427    0.02912    0.02516   1.00
C3       0.24798    0.15461    0.07620   1.00
H1       0.24364    0.18518    0.08466   1.00
C3       0.21175    0.04190    0.06675   1.00
H1       0.18210    0.99552    0.06847   1.00
C2       0.20360    0.08630    0.07845   1.00
C2       0.74911    0.54355    0.00280   1.00
C3       0.80212    0.60526    0.99946   1.00
H1       0.82262    0.61502    0.98675   1.00
C3       0.72091    0.52973    0.02160   1.00
H1       0.68442    0.48654    0.02435   1.00
C4       0.82792    0.65522    0.01410   1.00
C5       0.88877    0.72576    0.01031   1.00
H2       0.93018    0.72511    0.01293   1.00
H2       0.88839    0.73862    0.99648   1.00
H2       0.88628    0.75808    0.01915   1.00
C4       0.74524    0.57822    0.03679   1.00
C5       0.71378    0.56136    0.05841   1.00
H2       0.67997    0.57486    0.05953   1.00
H2       0.69316    0.51330    0.06082   1.00
H2       0.74890    0.58567    0.06823   1.00
C6       0.80021    0.64155    0.03326   1.00
C6       0.82732    0.69354    0.04954   1.00
C4       0.88028    0.70076    0.06174   1.00
C5       0.90449    0.65104    0.06024   1.00
H2       0.94129    0.66726    0.05068   1.00
H2       0.92016    0.64589    0.07324   1.00
H2       0.86758    0.60778    0.05581   1.00
C4       0.79894    0.73518    0.05177   1.00
C5       0.74114    0.73021    0.03851   1.00
H2       0.69795    0.69752    0.04430   1.00
H2       0.74414    0.77393    0.03783   1.00
H2       0.74485    0.71573    0.02516   1.00
C3       0.90663    0.75202    0.07620   1.00
H1       0.94154    0.75636    0.08466   1.00
C3       0.83015    0.78825    0.06675   1.00
H1       0.81342    0.81790    0.06847   1.00
C2       0.88270    0.79640    0.07845   1.00
C2       -0.20556   0.25089    0.00280   1.00
C3       -0.19686   0.19788    0.99946   1.00
H1       -0.20760   0.17738    0.98675   1.00
C3       -0.19118   0.27909    0.02160   1.00
H1       -0.19788   0.31558    0.02435   1.00
C4       -0.17270   0.17208    0.01410   1.00
C5       -0.16301   0.11123    0.01031   1.00
H2       -0.20507   0.06982    0.01293   1.00
H2       -0.14977   0.11161    0.99648   1.00
H2       -0.12820   0.11372    0.01915   1.00
C4       -0.16702   0.25476    0.03679   1.00
C5       -0.15242   0.28622    0.05841   1.00
H2       -0.10511   0.32003    0.05953   1.00
H2       -0.17986   0.30684    0.06082   1.00
H2       -0.16323   0.25110    0.06823   1.00
C6       -0.15866   0.19979    0.03326   1.00
C6       -0.13378   0.17268    0.04954   1.00
C4       -0.17952   0.11972    0.06174   1.00
C5       -0.25345   0.09551    0.06024   1.00
H2       -0.27403   0.05871    0.05068   1.00
H2       -0.27427   0.07984    0.07324   1.00
H2       -0.25980   0.13242    0.05581   1.00
C4       -0.06376   0.20106    0.05177   1.00
C5       -0.01093   0.25886    0.03851   1.00
H2       -0.00043   0.30205    0.04430   1.00
H2       0.02979    0.25586    0.03783   1.00
H2       -0.02912   0.25515    0.02516   1.00
C3       -0.15461   0.09337    0.07620   1.00
H1       -0.18518   0.05846    0.08466   1.00
C3       -0.04190   0.16985    0.06675   1.00
H1       0.00448    0.18658    0.06847   1.00
C2       -0.08630   0.11730    0.07845   1.00
C2       0.46111    0.87688    0.83613   1.00
C3       0.46981    0.93859    0.83279   1.00
H1       0.45907    0.94835    0.82008   1.00
C3       0.47549    0.86306    0.85493   1.00
H1       0.46879    0.81987    0.85768   1.00
C4       0.49397    0.98855    0.84743   1.00
C5       0.50366    0.05909    0.84364   1.00
H2       0.46160    0.05844    0.84626   1.00
H2       0.51690    0.07195    0.82981   1.00
H2       0.53847    0.09141    0.85248   1.00
C4       0.49965    0.91155    0.87012   1.00
C5       0.51425    0.89469    0.89174   1.00
H2       0.56156    0.90819    0.89286   1.00
H2       0.48681    0.84663    0.89415   1.00
H2       0.50344    0.91900    0.90156   1.00
C6       0.50801    0.97488    0.86659   1.00
C6       0.53289    0.02687    0.88287   1.00
C4       0.48715    0.03409    0.89507   1.00
C5       0.41322    0.98437    0.89357   1.00
H2       0.39264    0.00059    0.88401   1.00
H2       0.39240    0.97922    0.90657   1.00
H2       0.40687    0.94111    0.88914   1.00
C4       0.60291    0.06851    0.88510   1.00
C5       0.65574    0.06354    0.87184   1.00
H2       0.66624    0.03085    0.87763   1.00
H2       0.69646    0.10726    0.87116   1.00
H2       0.63755    0.04906    0.85849   1.00
C3       0.51206    0.08535    0.90953   1.00
H1       0.48149    0.08969    0.91799   1.00
C3       0.62477    0.12158    0.90008   1.00
H1       0.67115    0.15123    0.90180   1.00
C2       0.58037    0.12973    0.91178   1.00
C2       0.12312    0.58422    0.83613   1.00
C3       0.06141    0.53121    0.83279   1.00
H1       0.05165    0.51071    0.82008   1.00
C3       0.13694    0.61242    0.85493   1.00
H1       0.18013    0.64891    0.85768   1.00
C4       0.01145    0.50541    0.84743   1.00
C5       0.94091    0.44456    0.84364   1.00
H2       0.94156    0.40315    0.84626   1.00
H2       0.92805    0.44494    0.82981   1.00
H2       0.90859    0.44705    0.85248   1.00
C4       0.08845    0.58809    0.87012   1.00
C5       0.10531    0.61955    0.89174   1.00
H2       0.09181    0.65336    0.89286   1.00
H2       0.15337    0.64017    0.89415   1.00
H2       0.08100    0.58443    0.90156   1.00
C6       0.02512    0.53312    0.86659   1.00
C6       0.97313    0.50601    0.88287   1.00
C4       0.96591    0.45305    0.89507   1.00
C5       0.01563    0.42884    0.89357   1.00
H2       0.99941    0.39204    0.88401   1.00
H2       0.02078    0.41317    0.90657   1.00
H2       0.05889    0.46575    0.88914   1.00
C4       0.93149    0.53439    0.88510   1.00
C5       0.93646    0.59219    0.87184   1.00
H2       0.96915    0.63538    0.87763   1.00
H2       0.89274    0.58919    0.87116   1.00
H2       0.95094    0.58848    0.85849   1.00
C3       0.91465    0.42670    0.90953   1.00
H1       0.91031    0.39179    0.91799   1.00
C3       0.87842    0.50318    0.90008   1.00
H1       0.84877    0.51991    0.90180   1.00
C2       0.87027    0.45063    0.91178   1.00
C2       0.41578    0.53889    0.83613   1.00
C3       0.46879    0.53019    0.83279   1.00
H1       0.48929    0.54093    0.82008   1.00
C3       0.38758    0.52451    0.85493   1.00
H1       0.35109    0.53121    0.85768   1.00
C4       0.49459    0.50603    0.84743   1.00
C5       0.55544    0.49634    0.84364   1.00
H2       0.59685    0.53840    0.84626   1.00
H2       0.55506    0.48310    0.82981   1.00
H2       0.55295    0.46153    0.85248   1.00
C4       0.41191    0.50035    0.87012   1.00
C5       0.38045    0.48575    0.89174   1.00
H2       0.34664    0.43844    0.89286   1.00
H2       0.35983    0.51319    0.89415   1.00
H2       0.41557    0.49656    0.90156   1.00
C6       0.46688    0.49199    0.86659   1.00
C6       0.49399    0.46711    0.88287   1.00
C4       0.54695    0.51285    0.89507   1.00
C5       0.57116    0.58678    0.89357   1.00
H2       0.60796    0.60736    0.88401   1.00
H2       0.58683    0.60760    0.90657   1.00
H2       0.53425    0.59313    0.88914   1.00
C4       0.46561    0.39709    0.88510   1.00
C5       0.40781    0.34426    0.87184   1.00
H2       0.36462    0.33376    0.87763   1.00
H2       0.41081    0.30354    0.87116   1.00
H2       0.41152    0.36245    0.85849   1.00
C3       0.57330    0.48794    0.90953   1.00
H1       0.60821    0.51851    0.91799   1.00
C3       0.49682    0.37523    0.90008   1.00
H1       0.48009    0.32885    0.90180   1.00
C2       0.54937    0.41963    0.91178   1.00
C2       0.21022    0.12777    0.33053   1.00
C3       0.27193    0.13647    0.33387   1.00
H1       0.28169    0.12573    0.34658   1.00
C3       0.19640    0.14215    0.31173   1.00
H1       0.15321    0.13545    0.30898   1.00
C4       0.32189    0.16063    0.31923   1.00
C5       0.39243    0.17032    0.32302   1.00
H2       0.39178    0.12826    0.32040   1.00
H2       0.40529    0.18356    0.33685   1.00
H2       0.42475    0.20513    0.31418   1.00
C4       0.24489    0.16631    0.29654   1.00
C5       0.22803    0.18091    0.27492   1.00
H2       0.24153    0.22822    0.27380   1.00
H2       0.17997    0.15347    0.27251   1.00
H2       0.25234    0.17010    0.26510   1.00
C6       0.30822    0.17467    0.30007   1.00
C6       0.36021    0.19955    0.28379   1.00
C4       0.36743    0.15381    0.27159   1.00
C5       0.31771    0.07988    0.27309   1.00
H2       0.33393    0.05930    0.28265   1.00
H2       0.31256    0.05906    0.26009   1.00
H2       0.27445    0.07353    0.27752   1.00
C4       0.40185    0.26957    0.28156   1.00
C5       0.39688    0.32240    0.29482   1.00
H2       0.36419    0.33290    0.28903   1.00
H2       0.44060    0.36312    0.29550   1.00
H2       0.38240    0.30421    0.30817   1.00
C3       0.41869    0.17872    0.25713   1.00
H1       0.42303    0.14815    0.24867   1.00
C3       0.45492    0.29143    0.26658   1.00
H1       0.48457    0.33781    0.26486   1.00
C2       0.46307    0.24703    0.25488   1.00
C2       0.91756    0.78978    0.33053   1.00
C3       0.86455    0.72807    0.33387   1.00
H1       0.84405    0.71831    0.34658   1.00
C3       0.94576    0.80360    0.31173   1.00
H1       0.98225    0.84679    0.30898   1.00
C4       0.83875    0.67811    0.31923   1.00
C5       0.77790    0.60757    0.32302   1.00
H2       0.73649    0.60822    0.32040   1.00
H2       0.77828    0.59471    0.33685   1.00
H2       0.78039    0.57525    0.31418   1.00
C4       0.92143    0.75511    0.29654   1.00
C5       0.95289    0.77197    0.27492   1.00
H2       0.98670    0.75847    0.27380   1.00
H2       0.97351    0.82003    0.27251   1.00
H2       0.91777    0.74766    0.26510   1.00
C6       0.86646    0.69178    0.30007   1.00
C6       0.83935    0.63979    0.28379   1.00
C4       0.78639    0.63257    0.27159   1.00
C5       0.76218    0.68229    0.27309   1.00
H2       0.72538    0.66607    0.28265   1.00
H2       0.74651    0.68744    0.26009   1.00
H2       0.79909    0.72555    0.27752   1.00
C4       0.86773    0.59815    0.28156   1.00
C5       0.92553    0.60312    0.29482   1.00
H2       0.96872    0.63581    0.28903   1.00
H2       0.92253    0.55940    0.29550   1.00
H2       0.92182    0.61760    0.30817   1.00
C3       0.76004    0.58131    0.25713   1.00
H1       0.72513    0.57697    0.24867   1.00
C3       0.83652    0.54508    0.26658   1.00
H1       0.85325    0.51543    0.26486   1.00
C2       0.78397    0.53693    0.25488   1.00
C2       0.87223    0.08244    0.33053   1.00
C3       0.86353    0.13545    0.33387   1.00
H1       0.87427    0.15595    0.34658   1.00
C3       0.85785    0.05424    0.31173   1.00
H1       0.86455    0.01775    0.30898   1.00
C4       0.83937    0.16125    0.31923   1.00
C5       0.82968    0.22210    0.32302   1.00
H2       0.87174    0.26351    0.32040   1.00
H2       0.81644    0.22172    0.33685   1.00
H2       0.79487    0.21961    0.31418   1.00
C4       0.83369    0.07857    0.29654   1.00
C5       0.81909    0.04711    0.27492   1.00
H2       0.77178    0.01330    0.27380   1.00
H2       0.84653    0.02649    0.27251   1.00
H2       0.82990    0.08223    0.26510   1.00
C6       0.82533    0.13354    0.30007   1.00
C6       0.80045    0.16065    0.28379   1.00
C4       0.84619    0.21361    0.27159   1.00
C5       0.92012    0.23782    0.27309   1.00
H2       0.94070    0.27462    0.28265   1.00
H2       0.94094    0.25349    0.26009   1.00
H2       0.92647    0.20091    0.27752   1.00
C4       0.73043    0.13227    0.28156   1.00
C5       0.67760    0.07447    0.29482   1.00
H2       0.66710    0.03128    0.28903   1.00
H2       0.63688    0.07747    0.29550   1.00
H2       0.69579    0.07818    0.30817   1.00
C3       0.82128    0.23996    0.25713   1.00
H1       0.85185    0.27487    0.24867   1.00
C3       0.70857    0.16348    0.26658   1.00
H1       0.66219    0.14675    0.26486   1.00
C2       0.75297    0.21603    0.25488   1.00
C2       0.87223    0.78978    0.83053   1.00
C3       0.86353    0.72807    0.83387   1.00
H1       0.87427    0.71831    0.84658   1.00
C3       0.85785    0.80360    0.81173   1.00
H1       0.86455    0.84679    0.80898   1.00
C4       0.83937    0.67811    0.81923   1.00
C5       0.82968    0.60757    0.82302   1.00
H2       0.87174    0.60822    0.82040   1.00
H2       0.81644    0.59471    0.83685   1.00
H2       0.79487    0.57525    0.81418   1.00
C4       0.83369    0.75511    0.79654   1.00
C5       0.81909    0.77197    0.77492   1.00
H2       0.77178    0.75847    0.77380   1.00
H2       0.84653    0.82003    0.77251   1.00
H2       0.82990    0.74766    0.76510   1.00
C6       0.82533    0.69178    0.80007   1.00
C6       0.80045    0.63979    0.78379   1.00
C4       0.84619    0.63257    0.77159   1.00
C5       0.92012    0.68229    0.77309   1.00
H2       0.94070    0.66607    0.78265   1.00
H2       0.94094    0.68744    0.76009   1.00
H2       0.92647    0.72555    0.77752   1.00
C4       0.73043    0.59815    0.78156   1.00
C5       0.67760    0.60312    0.79482   1.00
H2       0.66710    0.63581    0.78903   1.00
H2       0.63688    0.55940    0.79550   1.00
H2       0.69579    0.61760    0.80817   1.00
C3       0.82128    0.58131    0.75713   1.00
H1       0.85185    0.57697    0.74867   1.00
C3       0.70857    0.54508    0.76658   1.00
H1       0.66219    0.51543    0.76486   1.00
C2       0.75297    0.53693    0.75488   1.00
C2       0.21022    0.08244    0.83053   1.00
C3       0.27193    0.13545    0.83387   1.00
H1       0.28169    0.15595    0.84658   1.00
C3       0.19640    0.05424    0.81173   1.00
H1       0.15321    0.01775    0.80898   1.00
C4       0.32189    0.16125    0.81923   1.00
C5       0.39243    0.22210    0.82302   1.00
H2       0.39178    0.26351    0.82040   1.00
H2       0.40529    0.22172    0.83685   1.00
H2       0.42475    0.21961    0.81418   1.00
C4       0.24489    0.07857    0.79654   1.00
C5       0.22803    0.04711    0.77492   1.00
H2       0.24153    0.01330    0.77380   1.00
H2       0.17997    0.02649    0.77251   1.00
H2       0.25234    0.08223    0.76510   1.00
C6       0.30822    0.13354    0.80007   1.00
C6       0.36021    0.16065    0.78379   1.00
C4       0.36743    0.21361    0.77159   1.00
C5       0.31771    0.23782    0.77309   1.00
H2       0.33393    0.27462    0.78265   1.00
H2       0.31256    0.25349    0.76009   1.00
H2       0.27445    0.20091    0.77752   1.00
C4       0.40185    0.13227    0.78156   1.00
C5       0.39688    0.07447    0.79482   1.00
H2       0.36419    0.03128    0.78903   1.00
H2       0.44060    0.07747    0.79550   1.00
H2       0.38240    0.07818    0.80817   1.00
C3       0.41869    0.23996    0.75713   1.00
H1       0.42303    0.27487    0.74867   1.00
C3       0.45492    0.16348    0.76658   1.00
H1       0.48457    0.14675    0.76486   1.00
C2       0.46307    0.21603    0.75488   1.00
C2       0.91756    0.12777    0.83053   1.00
C3       0.86455    0.13647    0.83387   1.00
H1       0.84405    0.12573    0.84658   1.00
C3       0.94576    0.14215    0.81173   1.00
H1       0.98225    0.13545    0.80898   1.00
C4       0.83875    0.16063    0.81923   1.00
C5       0.77790    0.17032    0.82302   1.00
H2       0.73649    0.12826    0.82040   1.00
H2       0.77828    0.18356    0.83685   1.00
H2       0.78039    0.20513    0.81418   1.00
C4       0.92143    0.16631    0.79654   1.00
C5       0.95289    0.18091    0.77492   1.00
H2       0.98670    0.22822    0.77380   1.00
H2       0.97351    0.15347    0.77251   1.00
H2       0.91777    0.17010    0.76510   1.00
C6       0.86646    0.17467    0.80007   1.00
C6       0.83935    0.19955    0.78379   1.00
C4       0.78639    0.15381    0.77159   1.00
C5       0.76218    0.07988    0.77309   1.00
H2       0.72538    0.05930    0.78265   1.00
H2       0.74651    0.05906    0.76009   1.00
H2       0.79909    0.07353    0.77752   1.00
C4       0.86773    0.26957    0.78156   1.00
C5       0.92553    0.32240    0.79482   1.00
H2       0.96872    0.33290    0.78903   1.00
H2       0.92253    0.36312    0.79550   1.00
H2       0.92182    0.30421    0.80817   1.00
C3       0.76004    0.17872    0.75713   1.00
H1       0.72513    0.14815    0.74867   1.00
C3       0.83652    0.29143    0.76658   1.00
H1       0.85325    0.33781    0.76486   1.00
C2       0.78397    0.24703    0.75488   1.00
C2       0.12312    0.53889    0.33613   1.00
C3       0.06141    0.53019    0.33279   1.00
H1       0.05165    0.54093    0.32008   1.00
C3       0.13694    0.52451    0.35493   1.00
H1       0.18013    0.53121    0.35768   1.00
C4       0.01145    0.50603    0.34743   1.00
C5       0.94091    0.49634    0.34364   1.00
H2       0.94156    0.53840    0.34626   1.00
H2       0.92805    0.48310    0.32981   1.00
H2       0.90859    0.46153    0.35248   1.00
C4       0.08845    0.50035    0.37012   1.00
C5       0.10531    0.48575    0.39174   1.00
H2       0.09181    0.43844    0.39286   1.00
H2       0.15337    0.51319    0.39415   1.00
H2       0.08100    0.49656    0.40156   1.00
C6       0.02512    0.49199    0.36659   1.00
C6       0.97313    0.46711    0.38287   1.00
C4       0.96591    0.51285    0.39507   1.00
C5       0.01563    0.58678    0.39357   1.00
H2       0.99941    0.60736    0.38401   1.00
H2       0.02078    0.60760    0.40657   1.00
H2       0.05889    0.59313    0.38914   1.00
C4       0.93149    0.39709    0.38510   1.00
C5       0.93646    0.34426    0.37184   1.00
H2       0.96915    0.33376    0.37763   1.00
H2       0.89274    0.30354    0.37116   1.00
H2       0.95094    0.36245    0.35849   1.00
C3       0.91465    0.48794    0.40953   1.00
H1       0.91031    0.51851    0.41799   1.00
C3       0.87842    0.37523    0.40008   1.00
H1       0.84877    0.32885    0.40180   1.00
C2       0.87027    0.41963    0.41178   1.00
C2       0.41578    0.87688    0.33613   1.00
C3       0.46879    0.93859    0.33279   1.00
H1       0.48929    0.94835    0.32008   1.00
C3       0.38758    0.86306    0.35493   1.00
H1       0.35109    0.81987    0.35768   1.00
C4       0.49459    0.98855    0.34743   1.00
C5       0.55544    0.05909    0.34364   1.00
H2       0.59685    0.05844    0.34626   1.00
H2       0.55506    0.07195    0.32981   1.00
H2       0.55295    0.09141    0.35248   1.00
C4       0.41191    0.91155    0.37012   1.00
C5       0.38045    0.89469    0.39174   1.00
H2       0.34664    0.90819    0.39286   1.00
H2       0.35983    0.84663    0.39415   1.00
H2       0.41557    0.91900    0.40156   1.00
C6       0.46688    0.97488    0.36659   1.00
C6       0.49399    0.02687    0.38287   1.00
C4       0.54695    0.03409    0.39507   1.00
C5       0.57116    0.98437    0.39357   1.00
H2       0.60796    0.00059    0.38401   1.00
H2       0.58683    0.97922    0.40657   1.00
H2       0.53425    0.94111    0.38914   1.00
C4       0.46561    0.06851    0.38510   1.00
C5       0.40781    0.06354    0.37184   1.00
H2       0.36462    0.03085    0.37763   1.00
H2       0.41081    0.10726    0.37116   1.00
H2       0.41152    0.04906    0.35849   1.00
C3       0.57330    0.08535    0.40953   1.00
H1       0.60821    0.08969    0.41799   1.00
C3       0.49682    0.12158    0.40008   1.00
H1       0.48009    0.15123    0.40180   1.00
C2       0.54937    0.12973    0.41178   1.00
C2       0.46111    0.58422    0.33613   1.00
C3       0.46981    0.53121    0.33279   1.00
H1       0.45907    0.51071    0.32008   1.00
C3       0.47549    0.61242    0.35493   1.00
H1       0.46879    0.64891    0.35768   1.00
C4       0.49397    0.50541    0.34743   1.00
C5       0.50366    0.44456    0.34364   1.00
H2       0.46160    0.40315    0.34626   1.00
H2       0.51690    0.44494    0.32981   1.00
H2       0.53847    0.44705    0.35248   1.00
C4       0.49965    0.58809    0.37012   1.00
C5       0.51425    0.61955    0.39174   1.00
H2       0.56156    0.65336    0.39286   1.00
H2       0.48681    0.64017    0.39415   1.00
H2       0.50344    0.58443    0.40156   1.00
C6       0.50801    0.53312    0.36659   1.00
C6       0.53289    0.50601    0.38287   1.00
C4       0.48715    0.45305    0.39507   1.00
C5       0.41322    0.42884    0.39357   1.00
H2       0.39264    0.39204    0.38401   1.00
H2       0.39240    0.41317    0.40657   1.00
H2       0.40687    0.46575    0.38914   1.00
C4       0.60291    0.53439    0.38510   1.00
C5       0.65574    0.59219    0.37184   1.00
H2       0.66624    0.63538    0.37763   1.00
H2       0.69646    0.58919    0.37116   1.00
H2       0.63755    0.58848    0.35849   1.00
C3       0.51206    0.42670    0.40953   1.00
H1       0.48149    0.39179    0.41799   1.00
C3       0.62477    0.50318    0.40008   1.00
H1       0.67115    0.51991    0.40180   1.00
C2       0.58037    0.45063    0.41178   1.00
C2       0.12777    0.21022    0.16947   1.00
C3       0.13647    0.27193    0.16613   1.00
H1       0.12573    0.28169    0.15342   1.00
C3       0.14215    0.19640    0.18827   1.00
H1       0.13545    0.15321    0.19102   1.00
C4       0.16063    0.32189    0.18077   1.00
C5       0.17032    0.39243    0.17698   1.00
H2       0.12826    0.39178    0.17960   1.00
H2       0.18356    0.40529    0.16315   1.00
H2       0.20513    0.42475    0.18582   1.00
C4       0.16631    0.24489    0.20346   1.00
C5       0.18091    0.22803    0.22508   1.00
H2       0.22822    0.24153    0.22620   1.00
H2       0.15347    0.17997    0.22749   1.00
H2       0.17010    0.25234    0.23490   1.00
C6       0.17467    0.30822    0.19993   1.00
C6       0.19955    0.36021    0.21621   1.00
C4       0.15381    0.36743    0.22841   1.00
C5       0.07988    0.31771    0.22691   1.00
H2       0.05930    0.33393    0.21735   1.00
H2       0.05906    0.31256    0.23991   1.00
H2       0.07353    0.27445    0.22248   1.00
C4       0.26957    0.40185    0.21844   1.00
C5       0.32240    0.39688    0.20518   1.00
H2       0.33290    0.36419    0.21097   1.00
H2       0.36312    0.44060    0.20450   1.00
H2       0.30421    0.38240    0.19183   1.00
C3       0.17872    0.41869    0.24287   1.00
H1       0.14815    0.42303    0.25133   1.00
C3       0.29143    0.45492    0.23342   1.00
H1       0.33781    0.48457    0.23514   1.00
C2       0.24703    0.46307    0.24512   1.00
C2       0.78978    0.91756    0.16947   1.00
C3       0.72807    0.86455    0.16613   1.00
H1       0.71831    0.84405    0.15342   1.00
C3       0.80360    0.94576    0.18827   1.00
H1       0.84679    0.98225    0.19102   1.00
C4       0.67811    0.83875    0.18077   1.00
C5       0.60757    0.77790    0.17698   1.00
H2       0.60822    0.73649    0.17960   1.00
H2       0.59471    0.77828    0.16315   1.00
H2       0.57525    0.78039    0.18582   1.00
C4       0.75511    0.92143    0.20346   1.00
C5       0.77197    0.95289    0.22508   1.00
H2       0.75847    0.98670    0.22620   1.00
H2       0.82003    0.97351    0.22749   1.00
H2       0.74766    0.91777    0.23490   1.00
C6       0.69178    0.86646    0.19993   1.00
C6       0.63979    0.83935    0.21621   1.00
C4       0.63257    0.78639    0.22841   1.00
C5       0.68229    0.76218    0.22691   1.00
H2       0.66607    0.72538    0.21735   1.00
H2       0.68744    0.74651    0.23991   1.00
H2       0.72555    0.79909    0.22248   1.00
C4       0.59815    0.86773    0.21844   1.00
C5       0.60312    0.92553    0.20518   1.00
H2       0.63581    0.96872    0.21097   1.00
H2       0.55940    0.92253    0.20450   1.00
H2       0.61760    0.92182    0.19183   1.00
C3       0.58131    0.76004    0.24287   1.00
H1       0.57697    0.72513    0.25133   1.00
C3       0.54508    0.83652    0.23342   1.00
H1       0.51543    0.85325    0.23514   1.00
C2       0.53693    0.78397    0.24512   1.00
C2       0.08244    0.87223    0.16947   1.00
C3       0.13545    0.86353    0.16613   1.00
H1       0.15595    0.87427    0.15342   1.00
C3       0.05424    0.85785    0.18827   1.00
H1       0.01775    0.86455    0.19102   1.00
C4       0.16125    0.83937    0.18077   1.00
C5       0.22210    0.82968    0.17698   1.00
H2       0.26351    0.87174    0.17960   1.00
H2       0.22172    0.81644    0.16315   1.00
H2       0.21961    0.79487    0.18582   1.00
C4       0.07857    0.83369    0.20346   1.00
C5       0.04711    0.81909    0.22508   1.00
H2       0.01330    0.77178    0.22620   1.00
H2       0.02649    0.84653    0.22749   1.00
H2       0.08223    0.82990    0.23490   1.00
C6       0.13354    0.82533    0.19993   1.00
C6       0.16065    0.80045    0.21621   1.00
C4       0.21361    0.84619    0.22841   1.00
C5       0.23782    0.92012    0.22691   1.00
H2       0.27462    0.94070    0.21735   1.00
H2       0.25349    0.94094    0.23991   1.00
H2       0.20091    0.92647    0.22248   1.00
C4       0.13227    0.73043    0.21844   1.00
C5       0.07447    0.67760    0.20518   1.00
H2       0.03128    0.66710    0.21097   1.00
H2       0.07747    0.63688    0.20450   1.00
H2       0.07818    0.69579    0.19183   1.00
C3       0.23996    0.82128    0.24287   1.00
H1       0.27487    0.85185    0.25133   1.00
C3       0.16348    0.70857    0.23342   1.00
H1       0.14675    0.66219    0.23514   1.00
C2       0.21603    0.75297    0.24512   1.00
C2       0.87688    0.46111    0.66387   1.00
C3       0.93859    0.46981    0.66721   1.00
H1       0.94835    0.45907    0.67992   1.00
C3       0.86306    0.47549    0.64507   1.00
H1       0.81987    0.46879    0.64232   1.00
C4       0.98855    0.49397    0.65257   1.00
C5       0.05909    0.50366    0.65636   1.00
H2       0.05844    0.46160    0.65374   1.00
H2       0.07195    0.51690    0.67019   1.00
H2       0.09141    0.53847    0.64752   1.00
C4       0.91155    0.49965    0.62988   1.00
C5       0.89469    0.51425    0.60826   1.00
H2       0.90819    0.56156    0.60714   1.00
H2       0.84663    0.48681    0.60585   1.00
H2       0.91900    0.50344    0.59844   1.00
C6       0.97488    0.50801    0.63341   1.00
C6       0.02687    0.53289    0.61713   1.00
C4       0.03409    0.48715    0.60493   1.00
C5       0.98437    0.41322    0.60643   1.00
H2       0.00059    0.39264    0.61599   1.00
H2       0.97922    0.39240    0.59343   1.00
H2       0.94111    0.40687    0.61086   1.00
C4       0.06851    0.60291    0.61490   1.00
C5       0.06354    0.65574    0.62816   1.00
H2       0.03085    0.66624    0.62237   1.00
H2       0.10726    0.69646    0.62884   1.00
H2       0.04906    0.63755    0.64151   1.00
C3       0.08535    0.51206    0.59047   1.00
H1       0.08969    0.48149    0.58201   1.00
C3       0.12158    0.62477    0.59992   1.00
H1       0.15123    0.67115    0.59820   1.00
C2       0.12973    0.58037    0.58822   1.00
C2       0.58422    0.12312    0.66387   1.00
C3       0.53121    0.06141    0.66721   1.00
H1       0.51071    0.05165    0.67992   1.00
C3       0.61242    0.13694    0.64507   1.00
H1       0.64891    0.18013    0.64232   1.00
C4       0.50541    0.01145    0.65257   1.00
C5       0.44456    0.94091    0.65636   1.00
H2       0.40315    0.94156    0.65374   1.00
H2       0.44494    0.92805    0.67019   1.00
H2       0.44705    0.90859    0.64752   1.00
C4       0.58809    0.08845    0.62988   1.00
C5       0.61955    0.10531    0.60826   1.00
H2       0.65336    0.09181    0.60714   1.00
H2       0.64017    0.15337    0.60585   1.00
H2       0.58443    0.08100    0.59844   1.00
C6       0.53312    0.02512    0.63341   1.00
C6       0.50601    0.97313    0.61713   1.00
C4       0.45305    0.96591    0.60493   1.00
C5       0.42884    0.01563    0.60643   1.00
H2       0.39204    0.99941    0.61599   1.00
H2       0.41317    0.02078    0.59343   1.00
H2       0.46575    0.05889    0.61086   1.00
C4       0.53439    0.93149    0.61490   1.00
C5       0.59219    0.93646    0.62816   1.00
H2       0.63538    0.96915    0.62237   1.00
H2       0.58919    0.89274    0.62884   1.00
H2       0.58848    0.95094    0.64151   1.00
C3       0.42670    0.91465    0.59047   1.00
H1       0.39179    0.91031    0.58201   1.00
C3       0.50318    0.87842    0.59992   1.00
H1       0.51991    0.84877    0.59820   1.00
C2       0.45063    0.87027    0.58822   1.00
C2       0.53889    0.41578    0.66387   1.00
C3       0.53019    0.46879    0.66721   1.00
H1       0.54093    0.48929    0.67992   1.00
C3       0.52451    0.38758    0.64507   1.00
H1       0.53121    0.35109    0.64232   1.00
C4       0.50603    0.49459    0.65257   1.00
C5       0.49634    0.55544    0.65636   1.00
H2       0.53840    0.59685    0.65374   1.00
H2       0.48310    0.55506    0.67019   1.00
H2       0.46153    0.55295    0.64752   1.00
C4       0.50035    0.41191    0.62988   1.00
C5       0.48575    0.38045    0.60826   1.00
H2       0.43844    0.34664    0.60714   1.00
H2       0.51319    0.35983    0.60585   1.00
H2       0.49656    0.41557    0.59844   1.00
C6       0.49199    0.46688    0.63341   1.00
C6       0.46711    0.49399    0.61713   1.00
C4       0.51285    0.54695    0.60493   1.00
C5       0.58678    0.57116    0.60643   1.00
H2       0.60736    0.60796    0.61599   1.00
H2       0.60760    0.58683    0.59343   1.00
H2       0.59313    0.53425    0.61086   1.00
C4       0.39709    0.46561    0.61490   1.00
C5       0.34426    0.40781    0.62816   1.00
H2       0.33376    0.36462    0.62237   1.00
H2       0.30354    0.41081    0.62884   1.00
H2       0.36245    0.41152    0.64151   1.00
C3       0.48794    0.57330    0.59047   1.00
H1       0.51851    0.60821    0.58201   1.00
C3       0.37523    0.49682    0.59992   1.00
H1       0.32885    0.48009    0.59820   1.00
C2       0.41963    0.54937    0.58822   1.00
C2       0.53889    0.12312    0.16387   1.00
C3       0.53019    0.06141    0.16721   1.00
H1       0.54093    0.05165    0.17992   1.00
C3       0.52451    0.13694    0.14507   1.00
H1       0.53121    0.18013    0.14232   1.00
C4       0.50603    0.01145    0.15257   1.00
C5       0.49634    0.94091    0.15636   1.00
H2       0.53840    0.94156    0.15374   1.00
H2       0.48310    0.92805    0.17019   1.00
H2       0.46153    0.90859    0.14752   1.00
C4       0.50035    0.08845    0.12988   1.00
C5       0.48575    0.10531    0.10826   1.00
H2       0.43844    0.09181    0.10714   1.00
H2       0.51319    0.15337    0.10585   1.00
H2       0.49656    0.08100    0.09844   1.00
C6       0.49199    0.02512    0.13341   1.00
C6       0.46711    0.97313    0.11713   1.00
C4       0.51285    0.96591    0.10493   1.00
C5       0.58678    0.01563    0.10643   1.00
H2       0.60736    0.99941    0.11599   1.00
H2       0.60760    0.02078    0.09343   1.00
H2       0.59313    0.05889    0.11086   1.00
C4       0.39709    0.93149    0.11490   1.00
C5       0.34426    0.93646    0.12816   1.00
H2       0.33376    0.96915    0.12237   1.00
H2       0.30354    0.89274    0.12884   1.00
H2       0.36245    0.95094    0.14151   1.00
C3       0.48794    0.91465    0.09047   1.00
H1       0.51851    0.91031    0.08201   1.00
C3       0.37523    0.87842    0.09992   1.00
H1       0.32885    0.84877    0.09820   1.00
C2       0.41963    0.87027    0.08822   1.00
C2       0.87688    0.41578    0.16387   1.00
C3       0.93859    0.46879    0.16721   1.00
H1       0.94835    0.48929    0.17992   1.00
C3       0.86306    0.38758    0.14507   1.00
H1       0.81987    0.35109    0.14232   1.00
C4       0.98855    0.49459    0.15257   1.00
C5       0.05909    0.55544    0.15636   1.00
H2       0.05844    0.59685    0.15374   1.00
H2       0.07195    0.55506    0.17019   1.00
H2       0.09141    0.55295    0.14752   1.00
C4       0.91155    0.41191    0.12988   1.00
C5       0.89469    0.38045    0.10826   1.00
H2       0.90819    0.34664    0.10714   1.00
H2       0.84663    0.35983    0.10585   1.00
H2       0.91900    0.41557    0.09844   1.00
C6       0.97488    0.46688    0.13341   1.00
C6       0.02687    0.49399    0.11713   1.00
C4       0.03409    0.54695    0.10493   1.00
C5       0.98437    0.57116    0.10643   1.00
H2       0.00059    0.60796    0.11599   1.00
H2       0.97922    0.58683    0.09343   1.00
H2       0.94111    0.53425    0.11086   1.00
C4       0.06851    0.46561    0.11490   1.00
C5       0.06354    0.40781    0.12816   1.00
H2       0.03085    0.36462    0.12237   1.00
H2       0.10726    0.41081    0.12884   1.00
H2       0.04906    0.41152    0.14151   1.00
C3       0.08535    0.57330    0.09047   1.00
H1       0.08969    0.60821    0.08201   1.00
C3       0.12158    0.49682    0.09992   1.00
H1       0.15123    0.48009    0.09820   1.00
C2       0.12973    0.54937    0.08822   1.00
C2       0.58422    0.46111    0.16387   1.00
C3       0.53121    0.46981    0.16721   1.00
H1       0.51071    0.45907    0.17992   1.00
C3       0.61242    0.47549    0.14507   1.00
H1       0.64891    0.46879    0.14232   1.00
C4       0.50541    0.49397    0.15257   1.00
C5       0.44456    0.50366    0.15636   1.00
H2       0.40315    0.46160    0.15374   1.00
H2       0.44494    0.51690    0.17019   1.00
H2       0.44705    0.53847    0.14752   1.00
C4       0.58809    0.49965    0.12988   1.00
C5       0.61955    0.51425    0.10826   1.00
H2       0.65336    0.56156    0.10714   1.00
H2       0.64017    0.48681    0.10585   1.00
H2       0.58443    0.50344    0.09844   1.00
C6       0.53312    0.50801    0.13341   1.00
C6       0.50601    0.53289    0.11713   1.00
C4       0.45305    0.48715    0.10493   1.00
C5       0.42884    0.41322    0.10643   1.00
H2       0.39204    0.39264    0.11599   1.00
H2       0.41317    0.39240    0.09343   1.00
H2       0.46575    0.40687    0.11086   1.00
C4       0.53439    0.60291    0.11490   1.00
C5       0.59219    0.65574    0.12816   1.00
H2       0.63538    0.66624    0.12237   1.00
H2       0.58919    0.69646    0.12884   1.00
H2       0.58848    0.63755    0.14151   1.00
C3       0.42670    0.51206    0.09047   1.00
H1       0.39179    0.48149    0.08201   1.00
C3       0.50318    0.62477    0.09992   1.00
H1       0.51991    0.67115    0.09820   1.00
C2       0.45063    0.58037    0.08822   1.00
C2       0.78978    0.87223    0.66947   1.00
C3       0.72807    0.86353    0.66613   1.00
H1       0.71831    0.87427    0.65342   1.00
C3       0.80360    0.85785    0.68827   1.00
H1       0.84679    0.86455    0.69102   1.00
C4       0.67811    0.83937    0.68077   1.00
C5       0.60757    0.82968    0.67698   1.00
H2       0.60822    0.87174    0.67960   1.00
H2       0.59471    0.81644    0.66315   1.00
H2       0.57525    0.79487    0.68582   1.00
C4       0.75511    0.83369    0.70346   1.00
C5       0.77197    0.81909    0.72508   1.00
H2       0.75847    0.77178    0.72620   1.00
H2       0.82003    0.84653    0.72749   1.00
H2       0.74766    0.82990    0.73490   1.00
C6       0.69178    0.82533    0.69993   1.00
C6       0.63979    0.80045    0.71621   1.00
C4       0.63257    0.84619    0.72841   1.00
C5       0.68229    0.92012    0.72691   1.00
H2       0.66607    0.94070    0.71735   1.00
H2       0.68744    0.94094    0.73991   1.00
H2       0.72555    0.92647    0.72248   1.00
C4       0.59815    0.73043    0.71844   1.00
C5       0.60312    0.67760    0.70518   1.00
H2       0.63581    0.66710    0.71097   1.00
H2       0.55940    0.63688    0.70450   1.00
H2       0.61760    0.69579    0.69183   1.00
C3       0.58131    0.82128    0.74287   1.00
H1       0.57697    0.85185    0.75133   1.00
C3       0.54508    0.70857    0.73342   1.00
H1       0.51543    0.66219    0.73514   1.00
C2       0.53693    0.75297    0.74512   1.00
C2       0.08244    0.21022    0.66947   1.00
C3       0.13545    0.27193    0.66613   1.00
H1       0.15595    0.28169    0.65342   1.00
C3       0.05424    0.19640    0.68827   1.00
H1       0.01775    0.15321    0.69102   1.00
C4       0.16125    0.32189    0.68077   1.00
C5       0.22210    0.39243    0.67698   1.00
H2       0.26351    0.39178    0.67960   1.00
H2       0.22172    0.40529    0.66315   1.00
H2       0.21961    0.42475    0.68582   1.00
C4       0.07857    0.24489    0.70346   1.00
C5       0.04711    0.22803    0.72508   1.00
H2       0.01330    0.24153    0.72620   1.00
H2       0.02649    0.17997    0.72749   1.00
H2       0.08223    0.25234    0.73490   1.00
C6       0.13354    0.30822    0.69993   1.00
C6       0.16065    0.36021    0.71621   1.00
C4       0.21361    0.36743    0.72841   1.00
C5       0.23782    0.31771    0.72691   1.00
H2       0.27462    0.33393    0.71735   1.00
H2       0.25349    0.31256    0.73991   1.00
H2       0.20091    0.27445    0.72248   1.00
C4       0.13227    0.40185    0.71844   1.00
C5       0.07447    0.39688    0.70518   1.00
H2       0.03128    0.36419    0.71097   1.00
H2       0.07747    0.44060    0.70450   1.00
H2       0.07818    0.38240    0.69183   1.00
C3       0.23996    0.41869    0.74287   1.00
H1       0.27487    0.42303    0.75133   1.00
C3       0.16348    0.45492    0.73342   1.00
H1       0.14675    0.48457    0.73514   1.00
C2       0.21603    0.46307    0.74512   1.00
C2       0.12777    0.91756    0.66947   1.00
C3       0.13647    0.86455    0.66613   1.00
H1       0.12573    0.84405    0.65342   1.00
C3       0.14215    0.94576    0.68827   1.00
H1       0.13545    0.98225    0.69102   1.00
C4       0.16063    0.83875    0.68077   1.00
C5       0.17032    0.77790    0.67698   1.00
H2       0.12826    0.73649    0.67960   1.00
H2       0.18356    0.77828    0.66315   1.00
H2       0.20513    0.78039    0.68582   1.00
C4       0.16631    0.92143    0.70346   1.00
C5       0.18091    0.95289    0.72508   1.00
H2       0.22822    0.98670    0.72620   1.00
H2       0.15347    0.97351    0.72749   1.00
H2       0.17010    0.91777    0.73490   1.00
C6       0.17467    0.86646    0.69993   1.00
C6       0.19955    0.83935    0.71621   1.00
C4       0.15381    0.78639    0.72841   1.00
C5       0.07988    0.76218    0.72691   1.00
H2       0.05930    0.72538    0.71735   1.00
H2       0.05906    0.74651    0.73991   1.00
H2       0.07353    0.79909    0.72248   1.00
C4       0.26957    0.86773    0.71844   1.00
C5       0.32240    0.92553    0.70518   1.00
H2       0.33290    0.96872    0.71097   1.00
H2       0.36312    0.92253    0.70450   1.00
H2       0.30421    0.92182    0.69183   1.00
C3       0.17872    0.76004    0.74287   1.00
H1       0.14815    0.72513    0.75133   1.00
C3       0.29143    0.83652    0.73342   1.00
H1       0.33781    0.85325    0.73514   1.00
C2       0.24703    0.78397    0.74512   1.00
