data_IRMOF10_interpen_symm_ligand3lp_label_m_2.

_audit_creation_method             'generated by an auxiliary program of Tobunporous'

_symmetry_space_group_name_H-M     'P 1'
_symmetry_Int_Tables_number        1
_symmetry_cell_setting             triclinic

_cell_length_a                    22.6523
_cell_length_b                    22.6523
_cell_length_c                    65.9502
_cell_angle_alpha                 90.0000
_cell_angle_beta                  90.0000
_cell_angle_gamma                 120.0000

loop_
_atom_site_label
_atom_site_fract_x
_atom_site_fract_y
_atom_site_fract_z
_atom_site_occupancy
O1       0.00000    -0.00000   0.62500   1.00
Zn1      0.00000    -0.00000   0.59589   1.00
Zn1      0.94848    1.04288    0.63392   1.00
Zn1      0.09439    0.05152    0.63392   1.00
Zn1      -0.04288   0.90561    0.63392   1.00
O2       0.93860    0.02610    0.58587   1.00
O2       0.08750    0.06140    0.58587   1.00
O2       -0.02610   0.91250    0.58587   1.00
O2       0.91305    0.07161    0.61181   1.00
O2       0.00462    0.12022    0.65110   1.00
O2       0.87413    0.98074    0.65071   1.00
O2       0.15856    0.08695    0.61181   1.00
O2       0.10660    0.12587    0.65071   1.00
O2       0.11559    0.99538    0.65110   1.00
O2       -0.07161   0.84144    0.61181   1.00
O2       0.87978    0.88441    0.65110   1.00
O2       0.01926    0.89340    0.65071   1.00
C1       0.91390    0.06020    0.59358   1.00
C1       0.14630    0.08610    0.59358   1.00
C1       -0.06020   0.85370    0.59358   1.00
C1       0.06663    0.14397    0.65673   1.00
C1       0.85603    0.92267    0.65673   1.00
C1       0.07733    0.93337    0.65673   1.00
O1       -0.00000   0.00000    0.87500   1.00
Zn1      -0.00000   0.00000    0.90411   1.00
Zn1      1.04288    0.94848    0.86608   1.00
Zn1      0.05152    0.09439    0.86608   1.00
Zn1      0.90561    -0.04288   0.86608   1.00
O2       0.02610    0.93860    0.91413   1.00
O2       0.06140    0.08750    0.91413   1.00
O2       0.91250    -0.02610   0.91413   1.00
O2       0.07161    0.91305    0.88819   1.00
O2       0.12022    0.00462    0.84890   1.00
O2       0.98074    0.87413    0.84929   1.00
O2       0.08695    0.15856    0.88819   1.00
O2       0.12587    0.10660    0.84929   1.00
O2       0.99538    0.11559    0.84890   1.00
O2       0.84144    -0.07161   0.88819   1.00
O2       0.88441    0.87978    0.84890   1.00
O2       0.89340    0.01926    0.84929   1.00
C1       0.06020    0.91390    0.90642   1.00
C1       0.08610    0.14630    0.90642   1.00
C1       0.85370    -0.06020   0.90642   1.00
C1       0.14397    0.06663    0.84327   1.00
C1       0.92267    0.85603    0.84327   1.00
C1       0.93337    0.07733    0.84327   1.00
O1       0.00000    0.00000    0.37500   1.00
Zn1      0.00000    0.00000    0.40411   1.00
Zn1      0.05152    -0.04288   0.36608   1.00
Zn1      0.90561    0.94848    0.36608   1.00
Zn1      1.04288    0.09439    0.36608   1.00
O2       0.06140    -0.02610   0.41413   1.00
O2       0.91250    0.93860    0.41413   1.00
O2       0.02610    0.08750    0.41413   1.00
O2       0.08695    -0.07161   0.38819   1.00
O2       0.99538    0.87978    0.34890   1.00
O2       0.12587    0.01926    0.34929   1.00
O2       0.84144    0.91305    0.38819   1.00
O2       0.89340    0.87413    0.34929   1.00
O2       0.88441    0.00462    0.34890   1.00
O2       0.07161    0.15856    0.38819   1.00
O2       0.12022    0.11559    0.34890   1.00
O2       0.98074    0.10660    0.34929   1.00
C1       0.08610    -0.06020   0.40642   1.00
C1       0.85370    0.91390    0.40642   1.00
C1       0.06020    0.14630    0.40642   1.00
C1       0.93337    0.85603    0.34327   1.00
C1       0.14397    0.07733    0.34327   1.00
C1       0.92267    0.06663    0.34327   1.00
O1       0.00000    0.00000    0.12500   1.00
Zn1      0.00000    0.00000    0.09589   1.00
Zn1      -0.04288   0.05152    0.13392   1.00
Zn1      0.94848    0.90561    0.13392   1.00
Zn1      0.09439    1.04288    0.13392   1.00
O2       -0.02610   0.06140    0.08587   1.00
O2       0.93860    0.91250    0.08587   1.00
O2       0.08750    0.02610    0.08587   1.00
O2       -0.07161   0.08695    0.11181   1.00
O2       0.87978    0.99538    0.15110   1.00
O2       0.01926    0.12587    0.15071   1.00
O2       0.91305    0.84144    0.11181   1.00
O2       0.87413    0.89340    0.15071   1.00
O2       0.00462    0.88441    0.15110   1.00
O2       0.15856    0.07161    0.11181   1.00
O2       0.11559    0.12022    0.15110   1.00
O2       0.10660    0.98074    0.15071   1.00
C1       -0.06020   0.08610    0.09358   1.00
C1       0.91390    0.85370    0.09358   1.00
C1       0.14630    0.06020    0.09358   1.00
C1       0.85603    0.93337    0.15673   1.00
C1       0.07733    0.14397    0.15673   1.00
C1       0.06663    0.92267    0.15673   1.00
O1       0.66667    0.33333    0.95833   1.00
Zn1      0.66667    0.33333    0.92922   1.00
Zn1      0.61515    0.37621    0.96725   1.00
Zn1      0.76106    0.38485    0.96725   1.00
Zn1      -0.37621   0.23894    0.96725   1.00
O2       0.60527    0.35943    0.91920   1.00
O2       0.75417    0.39473    0.91920   1.00
O2       0.64057    0.24583    0.91920   1.00
O2       0.57972    0.40494    0.94514   1.00
O2       0.67129    0.45355    0.98443   1.00
O2       0.54080    0.31407    0.98404   1.00
O2       0.82523    0.42028    0.94514   1.00
O2       0.77327    0.45920    0.98404   1.00
O2       -0.21774   0.32871    0.98443   1.00
O2       0.59506    0.17477    0.94514   1.00
O2       0.54645    0.21774    0.98443   1.00
O2       -0.31407   0.22673    0.98404   1.00
C1       0.58057    0.39353    0.92691   1.00
C1       0.81297    0.41943    0.92691   1.00
C1       0.60647    0.18703    0.92691   1.00
C1       0.73330    0.47730    0.99006   1.00
C1       0.52270    0.25600    0.99006   1.00
C1       -0.25600   0.26670    0.99006   1.00
O1       0.66667    0.33333    0.20833   1.00
Zn1      0.66667    0.33333    0.23744   1.00
Zn1      0.70954    0.28182    0.19942   1.00
Zn1      0.71818    0.42773    0.19942   1.00
Zn1      0.57227    0.29046    0.19942   1.00
O2       0.69277    0.27193    0.24746   1.00
O2       0.72807    0.42083    0.24746   1.00
O2       0.57917    0.30723    0.24746   1.00
O2       0.73828    0.24638    0.22152   1.00
O2       0.78688    0.33796    0.18224   1.00
O2       0.64740    0.20747    0.18263   1.00
O2       0.75362    0.49189    0.22152   1.00
O2       0.79253    0.43994    0.18263   1.00
O2       0.66204    0.44893    0.18224   1.00
O2       0.50811    0.26172    0.22152   1.00
O2       0.55107    0.21312    0.18224   1.00
O2       0.56006    0.35260    0.18263   1.00
C1       0.72687    0.24723    0.23975   1.00
C1       0.75277    0.47963    0.23975   1.00
C1       0.52037    0.27313    0.23975   1.00
C1       0.81063    0.39997    0.17661   1.00
C1       0.58933    0.18937    0.17661   1.00
C1       0.60003    0.41067    0.17661   1.00
O1       0.66667    0.33333    0.70833   1.00
Zn1      0.66667    0.33333    0.73744   1.00
Zn1      0.71818    0.29046    0.69942   1.00
Zn1      0.57227    0.28182    0.69942   1.00
Zn1      0.70954    0.42773    0.69942   1.00
O2       0.72807    0.30723    0.74746   1.00
O2       0.57917    0.27193    0.74746   1.00
O2       0.69277    0.42083    0.74746   1.00
O2       0.75362    0.26172    0.72152   1.00
O2       0.66204    0.21312    0.68224   1.00
O2       0.79253    0.35260    0.68263   1.00
O2       0.50811    0.24638    0.72152   1.00
O2       0.56006    0.20747    0.68263   1.00
O2       0.55107    0.33796    0.68224   1.00
O2       0.73828    0.49189    0.72152   1.00
O2       0.78688    0.44893    0.68224   1.00
O2       0.64740    0.43994    0.68263   1.00
C1       0.75277    0.27313    0.73975   1.00
C1       0.52037    0.24723    0.73975   1.00
C1       0.72687    0.47963    0.73975   1.00
C1       0.60003    0.18937    0.67661   1.00
C1       0.81063    0.41067    0.67661   1.00
C1       0.58933    0.39997    0.67661   1.00
O1       0.66667    0.33333    0.45833   1.00
Zn1      0.66667    0.33333    0.42922   1.00
Zn1      -0.37621   0.38485    0.46725   1.00
Zn1      0.61515    0.23894    0.46725   1.00
Zn1      0.76106    0.37621    0.46725   1.00
O2       0.64057    0.39473    0.41920   1.00
O2       0.60527    0.24583    0.41920   1.00
O2       0.75417    0.35943    0.41920   1.00
O2       0.59506    0.42028    0.44514   1.00
O2       0.54645    0.32871    0.48443   1.00
O2       -0.31407   0.45920    0.48404   1.00
O2       0.57972    0.17477    0.44514   1.00
O2       0.54080    0.22673    0.48404   1.00
O2       0.67129    0.21774    0.48443   1.00
O2       0.82523    0.40494    0.44514   1.00
O2       -0.21774   0.45355    0.48443   1.00
O2       0.77327    0.31407    0.48404   1.00
C1       0.60647    0.41943    0.42691   1.00
C1       0.58057    0.18703    0.42691   1.00
C1       0.81297    0.39353    0.42691   1.00
C1       0.52270    0.26670    0.49006   1.00
C1       -0.25600   0.47730    0.49006   1.00
C1       0.73330    0.25600    0.49006   1.00
O1       0.33333    0.66667    0.29167   1.00
Zn1      0.33333    0.66667    0.26256   1.00
Zn1      0.28182    0.70954    0.30058   1.00
Zn1      0.42773    0.71818    0.30058   1.00
Zn1      0.29046    0.57227    0.30058   1.00
O2       0.27193    0.69277    0.25254   1.00
O2       0.42083    0.72807    0.25254   1.00
O2       0.30723    0.57917    0.25254   1.00
O2       0.24638    0.73828    0.27848   1.00
O2       0.33796    0.78688    0.31776   1.00
O2       0.20747    0.64740    0.31737   1.00
O2       0.49189    0.75362    0.27848   1.00
O2       0.43994    0.79253    0.31737   1.00
O2       0.44893    0.66204    0.31776   1.00
O2       0.26172    0.50811    0.27848   1.00
O2       0.21312    0.55107    0.31776   1.00
O2       0.35260    0.56006    0.31737   1.00
C1       0.24723    0.72687    0.26025   1.00
C1       0.47963    0.75277    0.26025   1.00
C1       0.27313    0.52037    0.26025   1.00
C1       0.39997    0.81063    0.32339   1.00
C1       0.18937    0.58933    0.32339   1.00
C1       0.41067    0.60003    0.32339   1.00
O1       0.33333    0.66667    0.54167   1.00
Zn1      0.33333    0.66667    0.57078   1.00
Zn1      0.37621    0.61515    0.53275   1.00
Zn1      0.38485    0.76106    0.53275   1.00
Zn1      0.23894    -0.37621   0.53275   1.00
O2       0.35943    0.60527    0.58080   1.00
O2       0.39473    0.75417    0.58080   1.00
O2       0.24583    0.64057    0.58080   1.00
O2       0.40494    0.57972    0.55486   1.00
O2       0.45355    0.67129    0.51557   1.00
O2       0.31407    0.54080    0.51596   1.00
O2       0.42028    0.82523    0.55486   1.00
O2       0.45920    0.77327    0.51596   1.00
O2       0.32871    -0.21774   0.51557   1.00
O2       0.17477    0.59506    0.55486   1.00
O2       0.21774    0.54645    0.51557   1.00
O2       0.22673    -0.31407   0.51596   1.00
C1       0.39353    0.58057    0.57309   1.00
C1       0.41943    0.81297    0.57309   1.00
C1       0.18703    0.60647    0.57309   1.00
C1       0.47730    0.73330    0.50994   1.00
C1       0.25600    0.52270    0.50994   1.00
C1       0.26670    -0.25600   0.50994   1.00
O1       0.33333    0.66667    0.04167   1.00
Zn1      0.33333    0.66667    0.07078   1.00
Zn1      0.38485    -0.37621   0.03275   1.00
Zn1      0.23894    0.61515    0.03275   1.00
Zn1      0.37621    0.76106    0.03275   1.00
O2       0.39473    0.64057    0.08080   1.00
O2       0.24583    0.60527    0.08080   1.00
O2       0.35943    0.75417    0.08080   1.00
O2       0.42028    0.59506    0.05486   1.00
O2       0.32871    0.54645    0.01557   1.00
O2       0.45920    -0.31407   0.01596   1.00
O2       0.17477    0.57972    0.05486   1.00
O2       0.22673    0.54080    0.01596   1.00
O2       0.21774    0.67129    0.01557   1.00
O2       0.40494    0.82523    0.05486   1.00
O2       0.45355    -0.21774   0.01557   1.00
O2       0.31407    0.77327    0.01596   1.00
C1       0.41943    0.60647    0.07309   1.00
C1       0.18703    0.58057    0.07309   1.00
C1       0.39353    0.81297    0.07309   1.00
C1       0.26670    0.52270    0.00994   1.00
C1       0.47730    -0.25600   0.00994   1.00
C1       0.25600    0.73330    0.00994   1.00
O1       0.33333    0.66667    0.79167   1.00
Zn1      0.33333    0.66667    0.76256   1.00
Zn1      0.29046    0.71818    0.80058   1.00
Zn1      0.28182    0.57227    0.80058   1.00
Zn1      0.42773    0.70954    0.80058   1.00
O2       0.30723    0.72807    0.75254   1.00
O2       0.27193    0.57917    0.75254   1.00
O2       0.42083    0.69277    0.75254   1.00
O2       0.26172    0.75362    0.77848   1.00
O2       0.21312    0.66204    0.81776   1.00
O2       0.35260    0.79253    0.81737   1.00
O2       0.24638    0.50811    0.77848   1.00
O2       0.20747    0.56006    0.81737   1.00
O2       0.33796    0.55107    0.81776   1.00
O2       0.49189    0.73828    0.77848   1.00
O2       0.44893    0.78688    0.81776   1.00
O2       0.43994    0.64740    0.81737   1.00
C1       0.27313    0.75277    0.76025   1.00
C1       0.24723    0.52037    0.76025   1.00
C1       0.47963    0.72687    0.76025   1.00
C1       0.18937    0.60003    0.82339   1.00
C1       0.41067    0.81063    0.82339   1.00
C1       0.39997    0.58933    0.82339   1.00
C4       -0.12475   0.69648    0.54826   1.00
C4       -0.14789   0.64436    0.53313   1.00
C3       -0.07245   0.70938    0.56244   1.00
C3       -0.12550   0.59603    0.53184   1.00
C3       -0.15600   0.73765    0.54964   1.00
C3       -0.19599   0.63986    0.51833   1.00
C2       -0.08318   0.80060    0.57906   1.00
C2       -0.19829   0.53952    0.50234   1.00
C3       -0.05247   0.75973    0.57749   1.00
C3       -0.14950   0.54544    0.51676   1.00
C3       -0.13424   0.78903    0.56469   1.00
C3       -0.22171   0.58670    0.50380   1.00
H1       -0.04717   0.68274    0.56221   1.00
H1       -0.09143   0.59589    0.54190   1.00
C5       -0.20859   0.72741    0.53592   1.00
C5       -0.21866   0.68795    0.51819   1.00
H1       -0.01470   0.76642    0.58742   1.00
H1       -0.13106   0.51224    0.51647   1.00
H1       -0.15580   0.81942    0.56513   1.00
H1       -0.25933   0.58152    0.49413   1.00
O3       -0.24619   0.75903    0.53936   1.00
O3       -0.25414   0.69297    0.50185   1.00
Si1      -0.31791   0.71910    0.55187   1.00
Si1      -0.21142   0.73978    0.48249   1.00
C6       -0.33222   0.78862    0.55412   1.00
C6       -0.37847   0.65564    0.53573   1.00
C6       -0.30930   0.68984    0.57591   1.00
C6       -0.12148   0.77957    0.48301   1.00
C6       -0.24317   0.68228    0.46211   1.00
C6       -0.23658   0.80116    0.47894   1.00
C6       -0.26967   0.85759    0.56132   1.00
H2       -0.34103   0.79722    0.53838   1.00
C6       -0.39485   0.78184    0.56633   1.00
H2       -0.35811   0.67636    0.52075   1.00
C6       -0.38606   0.58308    0.53622   1.00
C6       -0.45318   0.64260    0.53580   1.00
H2       -0.26480   0.73481    0.58213   1.00
C6       -0.36841   0.67018    0.59154   1.00
C6       -0.29378   0.62962    0.57733   1.00
C6       -0.08279   0.82829    0.50113   1.00
C6       -0.08647   0.73578    0.47940   1.00
H2       -0.10686   0.81248    0.46968   1.00
H2       -0.22302   0.64815    0.46481   1.00
C6       -0.32249   0.63505    0.46121   1.00
C6       -0.21975   0.71198    0.44029   1.00
H2       -0.28465   0.77379    0.47067   1.00
C6       -0.25412   0.82800    0.49849   1.00
C6       -0.18950   0.86565    0.46588   1.00
H2       -0.22535   0.87286    0.55157   1.00
H2       -0.25507   0.85371    0.57685   1.00
H2       -0.28118   0.89906    0.56082   1.00
H2       -0.41318   0.81356    0.55939   1.00
H2       -0.43747   0.72988    0.56680   1.00
H2       -0.38168   0.79924    0.58199   1.00
H2       -0.41363   0.55359    0.52285   1.00
H2       -0.33689   0.58543    0.53609   1.00
H2       -0.41449   0.55450    0.54957   1.00
H2       -0.45444   0.68920    0.53254   1.00
H2       -0.48416   0.60593    0.52407   1.00
H2       -0.47798   0.62215    0.55037   1.00
H2       -0.41765   0.63313    0.58509   1.00
H2       -0.36100   0.64820    0.60543   1.00
H2       -0.37071   0.71475    0.59648   1.00
H2       -0.34026   0.57987    0.57717   1.00
H2       -0.26171   0.62948    0.56516   1.00
H2       -0.26723   0.63305    0.59152   1.00
H2       -0.08146   0.80027    0.51438   1.00
H2       -0.02986   0.86392    0.49697   1.00
H2       -0.10555   0.85879    0.50559   1.00
H2       -0.03147   0.76869    0.47732   1.00
H2       -0.09343   0.70235    0.49213   1.00
H2       -0.10523   0.70467    0.46573   1.00
H2       -0.33632   0.59384    0.45026   1.00
H2       -0.34311   0.61099    0.47587   1.00
H2       -0.34809   0.66297    0.45669   1.00
H2       -0.16446   0.74422    0.43932   1.00
H2       -0.23450   0.67070    0.42931   1.00
H2       -0.24319   0.74174    0.43552   1.00
H2       -0.21029   0.85444    0.50855   1.00
H2       -0.27303   0.86270    0.49490   1.00
H2       -0.29419   0.78558    0.50685   1.00
H2       -0.21541   0.89413    0.46223   1.00
H2       -0.14250   0.90018    0.47394   1.00
H2       -0.17585   0.85196    0.45149   1.00
C4       0.30607    0.17942    0.54900   1.00
C4       0.35770    0.20772    0.53371   1.00
C3       0.31541    0.20519    0.56909   1.00
C3       0.42562    0.26051    0.53747   1.00
C3       0.24163    0.12144    0.54420   1.00
C3       0.34113    0.18241    0.51346   1.00
C2       0.20027    0.11722    0.57933   1.00
C2       0.45961    0.26119    0.50207   1.00
C3       0.26414    0.17475    0.58388   1.00
C3       0.47503    0.28697    0.52205   1.00
C3       0.19012    0.09226    0.55922   1.00
C3       0.39241    0.20775    0.49834   1.00
H1       0.35964    0.24697    0.57355   1.00
H1       0.44131    0.28099    0.55154   1.00
C5       0.22895    0.09317    0.52439   1.00
C5       0.27372    0.13158    0.50841   1.00
H1       0.27399    0.19532    0.59820   1.00
H1       0.52316    0.32552    0.52562   1.00
H1       0.14351    0.05186    0.55540   1.00
H1       0.38084    0.18608    0.48423   1.00
O3       0.17153    0.03104    0.52073   1.00
O3       0.25336    0.11614    0.48842   1.00
Si1      0.17569    -0.03880   0.52210   1.00
Si1      0.22762    0.16215    0.47638   1.00
C6       0.08746    -0.09679   0.51977   1.00
C6       0.22061    -0.04123   0.50057   1.00
C6       0.20746    -0.04867   0.54555   1.00
C6       0.22987    0.23166    0.48930   1.00
C6       0.28224    0.19239    0.45530   1.00
C6       0.14452    0.10618    0.46752   1.00
C6       0.03969    -0.08224   0.53353   1.00
H2       0.07710    -0.08757   0.50427   1.00
C6       0.05845    -0.17578   0.52124   1.00
H2       0.21172    -0.00989   0.48981   1.00
C6       0.29985    -0.00823   0.50209   1.00
C6       0.19559    -0.11119   0.48967   1.00
H2       0.17789    -0.03758   0.55643   1.00
C6       0.19422    -0.12168   0.55097   1.00
C6       0.28465    -0.00018   0.55101   1.00
C6       0.18965    0.21698    0.50969   1.00
C6       0.29994    0.29835    0.49278   1.00
H2       0.20343    0.24765    0.47873   1.00
H2       0.33156    0.22882    0.46181   1.00
C6       0.29434    0.13870    0.44389   1.00
C6       0.26651    0.23187    0.43868   1.00
H2       0.15249    0.08435    0.45374   1.00
C6       0.09899    0.04373    0.48130   1.00
C6       0.09907    0.13724    0.46117   1.00
H2       0.04848    -0.03070   0.53120   1.00
H2       0.04778    -0.08786   0.54960   1.00
H2       -0.01403   -0.11717   0.53006   1.00
H2       0.01402    -0.20268   0.51134   1.00
H2       0.09526    -0.19080   0.51677   1.00
H2       0.04126    -0.19529   0.53655   1.00
H2       0.32262    -0.00007   0.48698   1.00
H2       0.32352    0.04152    0.50938   1.00
H2       0.31391    -0.04101   0.51044   1.00
H2       0.14220    -0.13438   0.48517   1.00
H2       0.22434    -0.10488   0.47572   1.00
H2       0.20190    -0.14669   0.49940   1.00
H2       0.21222    -0.14186   0.53891   1.00
H2       0.21972    -0.12195   0.56504   1.00
H2       0.14040    -0.15692   0.55361   1.00
H2       0.31702    -0.01953   0.54533   1.00
H2       0.30525    0.05109    0.54515   1.00
H2       0.29108    0.00434    0.56749   1.00
H2       0.21902    0.21483    0.52247   1.00
H2       0.17813    0.25750    0.51298   1.00
H2       0.14119    0.16935    0.50923   1.00
H2       0.29209    0.33947    0.49830   1.00
H2       0.33122    0.29147    0.50400   1.00
H2       0.32936    0.31697    0.47881   1.00
H2       0.33728    0.16419    0.43338   1.00
H2       0.30703    0.10948    0.45444   1.00
H2       0.24976    0.10289    0.43515   1.00
H2       0.25929    0.27204    0.44525   1.00
H2       0.30905    0.25651    0.42800   1.00
H2       0.22102    0.19761    0.42998   1.00
H2       0.08934    0.05907    0.49604   1.00
H2       0.04993    0.00957    0.47419   1.00
H2       0.12407    0.01421    0.48390   1.00
H2       0.05343    0.09950    0.45312   1.00
H2       0.08234    0.15418    0.47438   1.00
H2       0.12601    0.18051    0.45095   1.00
C4       0.82552    0.13333    0.54936   1.00
C4       0.79712    0.15546    0.53376   1.00
C3       0.87238    0.17768    0.56412   1.00
C3       0.81739    0.22493    0.53023   1.00
C3       0.80721    0.06321    0.55020   1.00
C3       0.74538    0.10586    0.52089   1.00
C2       0.88328    0.08524    0.57979   1.00
C2       0.73831    0.19623    0.50161   1.00
C3       0.90079    0.15443    0.57885   1.00
C3       0.78837    0.24474    0.51473   1.00
C3       0.83545    0.04052    0.56542   1.00
C3       0.71890    0.12712    0.50481   1.00
H1       0.88707    0.22814    0.56464   1.00
H1       0.85413    0.26321    0.53875   1.00
C5       0.76059    0.01617    0.53590   1.00
C5       0.72075    0.03541    0.52401   1.00
H1       0.93480    0.18896    0.58904   1.00
H1       0.80460    0.29566    0.51300   1.00
H1       0.82039    -0.01026   0.56619   1.00
H1       0.68509    0.09136    0.49494   1.00
O3       0.75182    -0.04848   0.53462   1.00
O3       0.66210    -0.01354   0.51453   1.00
Si1      0.79665    -0.06424   0.51838   1.00
Si1      0.58843    -0.03613   0.52494   1.00
C6       0.77154    -0.14752   0.52681   1.00
C6       0.76408    -0.06535   0.49401   1.00
C6       0.88544    -0.00956   0.52106   1.00
C6       0.58713    0.00547    0.54749   1.00
C6       0.54463    -0.01996   0.50575   1.00
C6       0.54705    -0.12494   0.52882   1.00
C6       0.77421    -0.15647   0.55031   1.00
H2       0.71745    -0.17533   0.52288   1.00
C6       0.80263    -0.18938   0.51717   1.00
H2       0.71175    -0.07845   0.49741   1.00
C6       0.79558    0.00290    0.48175   1.00
C6       0.75814    -0.12021   0.47842   1.00
H2       0.89251    -0.01093   0.53742   1.00
C6       0.93327    -0.03255   0.51091   1.00
C6       0.91816    0.06775    0.51511   1.00
C6       0.62872    0.00312    0.56610   1.00
C6       0.60017    0.08019    0.54642   1.00
H2       0.53376    -0.02433   0.55206   1.00
H2       0.57087    0.03557    0.50488   1.00
C6       0.54961    -0.04443   0.48393   1.00
C6       0.46761    -0.04425   0.50949   1.00
H2       0.52547    -0.14641   0.51400   1.00
C6       0.59367    -0.15515   0.53419   1.00
C6       0.48610    -0.15743   0.54416   1.00
H2       0.74427    -0.13840   0.55846   1.00
H2       0.82655    -0.12836   0.55597   1.00
H2       0.75302    -0.21012   0.55437   1.00
H2       0.76451    -0.24369   0.51703   1.00
H2       0.81970    -0.17444   0.50164   1.00
H2       0.84602    -0.18445   0.52582   1.00
H2       0.76224    -0.00114   0.46918   1.00
H2       0.80189    0.04539    0.49105   1.00
H2       0.84496    0.01562    0.47532   1.00
H2       0.72777    -0.17170   0.48449   1.00
H2       0.73247    -0.11883   0.46452   1.00
H2       0.80842    -0.11173   0.47416   1.00
H2       0.92133    -0.04383   0.49483   1.00
H2       0.98714    0.00652    0.51213   1.00
H2       0.92914    -0.07723   0.51837   1.00
H2       0.93170    0.07644    0.49906   1.00
H2       0.88537    0.08883    0.51813   1.00
H2       0.96508    0.09832    0.52374   1.00
H2       0.68224    0.04243    0.56515   1.00
H2       0.60879    0.01192    0.58018   1.00
H2       0.62594    -0.04607   0.56759   1.00
H2       0.58822    0.09511    0.56095   1.00
H2       0.65309    0.11711    0.54302   1.00
H2       0.56802    0.08567    0.53513   1.00
H2       0.53104    -0.02214   0.47265   1.00
H2       0.60236    -0.02833   0.47990   1.00
H2       0.51953    -0.09978   0.48244   1.00
H2       0.45945    -0.02760   0.52423   1.00
H2       0.44879    -0.02276   0.49802   1.00
H2       0.43627    -0.09971   0.50862   1.00
H2       0.62053    -0.13537   0.54851   1.00
H2       0.56461    -0.21074   0.53517   1.00
H2       0.63161    -0.14227   0.52239   1.00
H2       0.45841    -0.21305   0.54290   1.00
H2       0.50376    -0.14448   0.55982   1.00
H2       0.44930    -0.14077   0.54126   1.00
C4       0.69244    -0.13382   0.95073   1.00
C4       0.64195    -0.15577   0.96634   1.00
C3       0.70042    -0.17926   0.93770   1.00
C3       0.59861    -0.22522   0.97168   1.00
C3       0.73848    -0.06259   0.94807   1.00
C3       0.63369    -0.10602   0.97730   1.00
C2       0.79799    -0.08553   0.92020   1.00
C2       0.54213    -0.19594   0.99840   1.00
C3       0.75196    -0.15585   0.92293   1.00
C3       0.54963    -0.24483   0.98714   1.00
C3       0.78932    -0.03995   0.93283   1.00
C3       0.58604    -0.12665   0.99340   1.00
H1       0.66888    -0.23068   0.93851   1.00
H1       0.60164    -0.26357   0.96458   1.00
C5       0.73325    -0.01443   0.96059   1.00
C5       0.67334    -0.03594   0.97229   1.00
H1       0.75559    -0.19113   0.91404   1.00
H1       0.51931    -0.29584   0.99022   1.00
H1       0.82076    0.01136    0.93072   1.00
H1       0.58379    -0.09015   1.00195   1.00
O3       0.78429    0.05291    0.96030   1.00
O3       0.65715    0.01120    0.97981   1.00
Si1      0.84648    0.08023    0.97672   1.00
Si1      0.60033    0.02245    0.96792   1.00
C6       0.89755    0.16207    0.96613   1.00
C6       0.81335    0.08498    1.00048   1.00
C6       0.88923    0.03298    0.97651   1.00
C6       0.55994    -0.02859   0.94642   1.00
C6       0.53917    0.00598    0.98676   1.00
C6       0.63940    0.10950    0.96151   1.00
C6       0.90848    0.16443    0.94260   1.00
H2       0.86641    0.18579    0.96867   1.00
C6       0.96951    0.21306    0.97521   1.00
H2       0.77027    0.09113    0.99608   1.00
C6       0.78308    0.02095    1.01462   1.00
C6       0.85838    0.14687    1.01466   1.00
H2       0.89781    0.03017    0.96031   1.00
C6       0.96126    0.06637    0.98676   1.00
C6       0.85173    -0.04241   0.98461   1.00
C6       0.60588    -0.02675   0.92844   1.00
C6       0.50405    -0.10524   0.94933   1.00
H2       0.53133    -0.00536   0.94046   1.00
H2       0.51512    -0.04889   0.98923   1.00
C6       0.56746    0.03922    1.00798   1.00
C6       0.48046    0.02070    0.98143   1.00
H2       0.63677    0.13405    0.97546   1.00
C6       0.71676    0.14546    0.95614   1.00
C6       0.60520    0.13122    0.94468   1.00
H2       0.85995    0.13910    0.93448   1.00
H2       0.93749    0.13963    0.93833   1.00
H2       0.93611    0.21696    0.93706   1.00
H2       0.97989    0.26547    0.97361   1.00
H2       0.97375    0.20436    0.99122   1.00
H2       1.01065    0.21060    0.96733   1.00
H2       0.75176    0.02499    1.02657   1.00
H2       0.75004    -0.02589   1.00641   1.00
H2       0.82343    0.01579    1.02199   1.00
H2       0.87427    0.19533    1.00706   1.00
H2       0.83012    0.14657    1.02816   1.00
H2       0.90360    0.14559    1.01979   1.00
H2       0.95933    0.08180    1.00233   1.00
H2       0.98170    0.03163    0.98716   1.00
H2       0.99850    0.11052    0.97828   1.00
H2       0.85808    -0.04480   1.00095   1.00
H2       0.79743    -0.06965   0.98162   1.00
H2       0.87270    -0.07140   0.97736   1.00
H2       0.62576    -0.06110   0.93100   1.00
H2       0.57649    -0.04294   0.91435   1.00
H2       0.64880    0.02421    0.92582   1.00
H2       0.47738    -0.12702   0.93505   1.00
H2       0.52554    -0.13639   0.95427   1.00
H2       0.46510    -0.11149   0.96022   1.00
H2       0.52717    0.01698    1.01944   1.00
H2       0.60818    0.03016    1.01308   1.00
H2       0.58732    0.09416    1.00780   1.00
H2       0.45618    -0.00248   0.96703   1.00
H2       0.44065    -0.00067   0.99305   1.00
H2       0.49909    0.07541    0.98062   1.00
H2       0.72654    0.12351    0.94273   1.00
H2       0.73791    0.20001    0.95353   1.00
H2       0.74493    0.14038    0.96869   1.00
H2       0.62784    0.18667    0.94430   1.00
H2       0.61163    0.11488    0.92965   1.00
H2       0.55082    0.10998    0.94742   1.00
C4       0.17942    0.30606    0.95100   1.00
C4       0.20773    0.35770    0.96629   1.00
C3       0.20523    0.31538    0.93092   1.00
C3       0.26055    0.42560    0.96253   1.00
C3       0.12140    0.24165    0.95580   1.00
C3       0.18237    0.34114    0.98654   1.00
C2       0.11722    0.20027    0.92067   1.00
C2       0.26119    0.45961    0.99793   1.00
C3       0.17479    0.26412    0.91613   1.00
C3       0.28701    0.47501    0.97795   1.00
C3       0.09222    0.19014    0.94077   1.00
C3       0.20770    0.39243    1.00166   1.00
H1       0.24704    0.35960    0.92646   1.00
H1       0.28107    0.44128    0.94847   1.00
C5       0.09309    0.22899    0.97560   1.00
C5       0.13148    0.27375    0.99158   1.00
H1       0.19539    0.27395    0.90181   1.00
H1       0.32560    0.52313    0.97439   1.00
H1       0.05179    0.14355    0.94459   1.00
H1       0.18600    0.38088    1.01576   1.00
O3       0.03092    0.17161    0.97925   1.00
O3       0.11599    0.25340    1.01158   1.00
Si1      -0.03887   0.17583    0.97786   1.00
Si1      0.16194    0.22761    1.02363   1.00
C6       -0.09692   0.08762    0.98019   1.00
C6       -0.04131   0.22077    0.99938   1.00
C6       -0.04866   0.20762    0.95441   1.00
C6       0.23145    0.22979    1.01073   1.00
C6       0.19216    0.28223    1.04470   1.00
C6       0.10590    0.14453    1.03248   1.00
C6       -0.08239   0.03980    0.96644   1.00
H2       -0.08775   0.07724    0.99570   1.00
C6       -0.17590   0.05865    0.97871   1.00
H2       -0.01002   0.21185    1.01016   1.00
C6       -0.00825   0.30002    0.99787   1.00
C6       -0.11128   0.19581    1.01027   1.00
H2       -0.03758   0.17802    0.94353   1.00
C6       -0.12165   0.19443    0.94897   1.00
C6       -0.00011   0.28479    0.94894   1.00
C6       0.21678    0.18957    0.99033   1.00
C6       0.29817    0.29984    1.00725   1.00
H2       0.24738    0.20334    1.02130   1.00
H2       0.22863    0.33154    1.03820   1.00
C6       0.13849    0.29439    1.05610   1.00
C6       0.23158    0.26647    1.06134   1.00
H2       0.08405    0.15253    1.04626   1.00
C6       0.04346    0.09903    1.01869   1.00
C6       0.13689    0.09903    1.03885   1.00
H2       -0.03087   0.04855    0.96879   1.00
H2       -0.08797   0.04790    0.95037   1.00
H2       -0.11736   -0.01390   0.96991   1.00
H2       -0.20285   0.01423    0.98860   1.00
H2       -0.19089   0.09550    0.98317   1.00
H2       -0.19538   0.04147    0.96340   1.00
H2       -0.00011   0.32280    1.01297   1.00
H2       0.04152    0.32365    0.99058   1.00
H2       -0.04098   0.31411    0.98951   1.00
H2       -0.13452   0.14242    1.01478   1.00
H2       -0.10498   0.22457    1.02422   1.00
H2       -0.14674   0.20215    1.00053   1.00
H2       -0.14182   0.21246    0.96102   1.00
H2       -0.12186   0.21994    0.93489   1.00
H2       -0.15691   0.14062    0.94633   1.00
H2       -0.01944   0.31720    0.95462   1.00
H2       0.05114    0.30536    0.95482   1.00
H2       0.00444    0.29122    0.93247   1.00
H2       0.21468    0.21895    0.97756   1.00
H2       0.25727    0.17801    0.98707   1.00
H2       0.16913    0.14113    0.99079   1.00
H2       0.33928    0.29194    1.00175   1.00
H2       0.29135    0.33114    0.99603   1.00
H2       0.31678    0.32926    1.02122   1.00
H2       0.16398    0.33733    1.06661   1.00
H2       0.10931    0.30711    1.04554   1.00
H2       0.10263    0.24982    1.06484   1.00
H2       0.27174    0.25920    1.05478   1.00
H2       0.25622    0.30900    1.07202   1.00
H2       0.19727    0.22099    1.07004   1.00
H2       0.05882    0.08935    1.00396   1.00
H2       0.00926    0.04998    1.02581   1.00
H2       0.01398    0.12414    1.01609   1.00
H2       0.09911    0.05341    1.04689   1.00
H2       0.15384    0.08228    1.02565   1.00
H2       0.18014    0.12594    1.04908   1.00
C4       0.13333    0.82552    0.95064   1.00
C4       0.15546    0.79712    0.96624   1.00
C3       0.17768    0.87238    0.93588   1.00
C3       0.22493    0.81739    0.96976   1.00
C3       0.06321    0.80721    0.94980   1.00
C3       0.10587    0.74539    0.97911   1.00
C2       0.08524    0.88328    0.92021   1.00
C2       0.19623    0.73831    0.99839   1.00
C3       0.15443    0.90078    0.92115   1.00
C3       0.24474    0.78837    0.98527   1.00
C3       0.04052    0.83546    0.93458   1.00
C3       0.12712    0.71890    0.99519   1.00
H1       0.22814    0.88707    0.93535   1.00
H1       0.26320    0.85413    0.96125   1.00
C5       0.01617    0.76060    0.96410   1.00
C5       0.03541    0.72075    0.97600   1.00
H1       0.18895    0.93479    0.91096   1.00
H1       0.29566    0.80460    0.98700   1.00
H1       -0.01026   0.82040    0.93382   1.00
H1       0.09137    0.68510    1.00507   1.00
O3       -0.04847   0.75184    0.96538   1.00
O3       -0.01354   0.66211    0.98548   1.00
Si1      -0.06423   0.79667    0.98162   1.00
Si1      -0.03614   0.58844    0.97506   1.00
C6       -0.14751   0.77157    0.97320   1.00
C6       -0.06534   0.76410    1.00600   1.00
C6       -0.00954   0.88546    0.97894   1.00
C6       0.00546    0.58713    0.95252   1.00
C6       -0.01997   0.54463    0.99425   1.00
C6       -0.12494   0.54706    0.97118   1.00
C6       -0.15646   0.77423    0.94969   1.00
H2       -0.17533   0.71748    0.97713   1.00
C6       -0.18936   0.80267    0.98283   1.00
H2       -0.07844   0.71177    1.00260   1.00
C6       0.00292    0.79560    1.01825   1.00
C6       -0.12019   0.75817    1.02158   1.00
H2       -0.01092   0.89252    0.96258   1.00
C6       -0.03252   0.93329    0.98909   1.00
C6       0.06777    0.91817    0.98489   1.00
C6       0.00311    0.62872    0.93391   1.00
C6       0.08017    0.60017    0.95359   1.00
H2       -0.02435   0.53376    0.94794   1.00
H2       0.03556    0.57088    0.99512   1.00
C6       -0.04444   0.54962    1.01608   1.00
C6       -0.04427   0.46762    0.99052   1.00
H2       -0.14641   0.52548    0.98600   1.00
C6       -0.15516   0.59368    0.96581   1.00
C6       -0.15744   0.48611    0.95585   1.00
H2       -0.13840   0.74428    0.94154   1.00
H2       -0.12835   0.82657    0.94403   1.00
H2       -0.21012   0.75305    0.94563   1.00
H2       -0.24367   0.76455    0.98298   1.00
H2       -0.17442   0.81974    0.99836   1.00
H2       -0.18443   0.84605    0.97419   1.00
H2       -0.00113   0.76226    1.03082   1.00
H2       0.04540    0.80191    1.00895   1.00
H2       0.01564    0.84499    1.02468   1.00
H2       -0.17168   0.72781    1.01551   1.00
H2       -0.11881   0.73250    1.03549   1.00
H2       -0.11170   0.80845    1.02584   1.00
H2       -0.04380   0.92136    1.00517   1.00
H2       0.00655    0.98716    0.98787   1.00
H2       -0.07720   0.92917    0.98163   1.00
H2       0.07647    0.93172    1.00094   1.00
H2       0.08884    0.88538    0.98187   1.00
H2       0.09834    0.96510    0.97626   1.00
H2       0.04241    0.68224    0.93485   1.00
H2       0.01190    0.60878    0.91982   1.00
H2       -0.04609   0.62594    0.93242   1.00
H2       0.09509    0.58821    0.93905   1.00
H2       0.11709    0.65309    0.95698   1.00
H2       0.08565    0.56801    0.96487   1.00
H2       -0.02214   0.53106    1.02736   1.00
H2       -0.02833   0.60238    1.02010   1.00
H2       -0.09978   0.51955    1.01757   1.00
H2       -0.02762   0.45945    0.97578   1.00
H2       -0.02277   0.44880    1.00199   1.00
H2       -0.09973   0.43628    0.99139   1.00
H2       -0.13538   0.62054    0.95150   1.00
H2       -0.21075   0.56463    0.96484   1.00
H2       -0.14227   0.63163    0.97762   1.00
H2       -0.21306   0.45843    0.95711   1.00
H2       -0.14450   0.50377    0.94019   1.00
H2       -0.14078   0.44930    0.95875   1.00
C4       0.13130    0.30155    0.45252   1.00
C4       0.15399    0.35381    0.46760   1.00
C3       0.16400    0.26316    0.44856   1.00
C3       0.21505    0.37711    0.47892   1.00
C3       0.07333    0.28715    0.44042   1.00
C3       0.11376    0.38480    0.47179   1.00
C2       0.08430    0.19906    0.42108   1.00
C2       0.19717    0.46082    0.49752   1.00
C3       0.14142    0.21359    0.43320   1.00
C3       0.23575    0.42869    0.49360   1.00
C3       0.05058    0.23605    0.42526   1.00
C3       0.13702    0.43870    0.48602   1.00
H1       0.20503    0.26992    0.45677   1.00
H1       0.24649    0.35761    0.47674   1.00
C5       0.03828    0.32366    0.44361   1.00
C5       0.05090    0.36236    0.46164   1.00
H1       0.16740    0.18779    0.43093   1.00
H1       0.28007    0.44307    0.50144   1.00
H1       0.00781    0.22496    0.41708   1.00
H1       0.10989    0.46329    0.48791   1.00
O3       -0.01011   0.31784    0.42983   1.00
O3       0.00509    0.38172    0.46821   1.00
Si1      0.01165    0.37275    0.41132   1.00
Si1      -0.04826   0.33810    0.48629   1.00
C6       -0.06633   0.33091    0.39798   1.00
C6       0.02548    0.45022    0.42184   1.00
C6       0.07947    0.37909    0.39646   1.00
C6       -0.04281   0.26970    0.49724   1.00
C6       -0.03144   0.40008    0.50488   1.00
C6       -0.13108   0.30911    0.47687   1.00
C6       -0.09701   0.25238    0.39460   1.00
H2       -0.10122   0.33541    0.40846   1.00
C6       -0.07532   0.35917    0.37716   1.00
H2       -0.00601   0.43284    0.43548   1.00
C6       0.09895    0.50303    0.42927   1.00
C6       0.00046    0.49317    0.40979   1.00
H2       0.06345    0.32557    0.39367   1.00
C6       0.09054    0.41315    0.37506   1.00
C6       0.15316    0.41255    0.40577   1.00
C6       -0.04980   0.21147    0.48293   1.00
C6       0.01688    0.28509    0.51224   1.00
H2       -0.08798   0.24595    0.50690   1.00
H2       0.01881    0.41310    0.51064   1.00
C6       -0.02400   0.46886    0.49715   1.00
C6       -0.08005   0.37793    0.52367   1.00
H2       -0.13831   0.35306    0.47849   1.00
C6       -0.14226   0.29088    0.45386   1.00
C6       -0.19238   0.24888    0.48821   1.00
H2       -0.10321   0.22568    0.40893   1.00
H2       -0.06437   0.24209    0.38475   1.00
H2       -0.14755   0.22952    0.38765   1.00
H2       -0.12777   0.34867    0.37559   1.00
H2       -0.04191   0.41389    0.37558   1.00
H2       -0.06576   0.33495    0.36423   1.00
H2       0.09777    0.54114    0.43919   1.00
H2       0.12190    0.47905    0.43807   1.00
H2       0.13237    0.53011    0.41652   1.00
H2       -0.05388   0.46325    0.40636   1.00
H2       0.00731    0.53708    0.41862   1.00
H2       0.02882    0.51255    0.39564   1.00
H2       0.09540    0.46352    0.37618   1.00
H2       0.13637    0.41917    0.36757   1.00
H2       0.04885    0.38178    0.36484   1.00
H2       0.18137    0.46779    0.40373   1.00
H2       0.15362    0.40293    0.42185   1.00
H2       0.18249    0.39236    0.39829   1.00
H2       -0.00160   0.22464    0.47563   1.00
H2       -0.06553   0.16469    0.49157   1.00
H2       -0.08790   0.19923    0.47116   1.00
H2       0.00790    0.23838    0.51985   1.00
H2       0.06577    0.30594    0.50454   1.00
H2       0.02160    0.32041    0.52421   1.00
H2       -0.00236   0.50773    0.50903   1.00
H2       0.01047    0.48877    0.48415   1.00
H2       -0.07294   0.46330    0.49270   1.00
H2       -0.08667   0.33109    0.53049   1.00
H2       -0.05887   0.41728    0.53543   1.00
H2       -0.13018   0.37023    0.51960   1.00
H2       -0.13385   0.24877    0.45009   1.00
H2       -0.19365   0.27726    0.44900   1.00
H2       -0.10699   0.33474    0.44493   1.00
H2       -0.24092   0.24273    0.48292   1.00
H2       -0.19357   0.20061    0.48566   1.00
H2       -0.19018   0.25781    0.50451   1.00
C4       0.69570    0.82080    0.45150   1.00
C4       0.64501    0.79261    0.46706   1.00
C3       0.74665    0.80250    0.44865   1.00
C3       0.64396    0.74812    0.48242   1.00
C3       0.69665    0.87091    0.43816   1.00
C3       0.59200    0.80930    0.46743   1.00
C2       0.79852    0.88263    0.42032   1.00
C2       0.54160    0.73896    0.49828   1.00
C3       0.79689    0.83281    0.43357   1.00
C3       0.59334    0.72150    0.49749   1.00
C3       0.74699    0.89995    0.42280   1.00
C3       0.54318    0.78427    0.48325   1.00
H1       0.74860    0.76644    0.45739   1.00
H1       0.68018    0.73407    0.48319   1.00
C5       0.64714    0.89147    0.44019   1.00
C5       0.58827    0.85132    0.45214   1.00
H1       0.83274    0.81790    0.43231   1.00
H1       0.59480    0.68909    0.50810   1.00
H1       0.74588    0.93443    0.41298   1.00
H1       0.50819    0.80017    0.48404   1.00
O3       0.65488    0.94745    0.42964   1.00
O3       0.53069    0.85710    0.44985   1.00
Si1      0.69299    1.02252    0.44036   1.00
Si1      0.46727    0.80004    0.43640   1.00
C6       0.69714    1.07010    0.41865   1.00
C6       0.63657    1.02353    0.45860   1.00
C6       0.77526    1.04653    0.44951   1.00
C6       0.47421    0.73166    0.42611   1.00
C6       0.39851    0.76805    0.45344   1.00
C6       0.45143    0.84375    0.41698   1.00
C6       0.72351    1.05289    0.39878   1.00
H2       0.64341    1.05293    0.41584   1.00
C6       0.73378    1.15003    0.41937   1.00
H2       0.58711    0.98496    0.45269   1.00
C6       0.64013    1.00079    0.48076   1.00
C6       0.63181    1.08980    0.46099   1.00
H2       0.79784    1.03457    0.43663   1.00
C6       0.82407    1.12395    0.45426   1.00
C6       0.78318    1.00858    0.46838   1.00
C6       0.53615    0.74904    0.41193   1.00
C6       0.46611    0.67266    0.44034   1.00
H2       0.42942    0.70685    0.41631   1.00
H2       0.41020    0.73918    0.46437   1.00
C6       0.39131    0.82234    0.46625   1.00
C6       0.32602    0.71764    0.44484   1.00
H2       0.42111    0.86281    0.42437   1.00
C6       0.51485    0.90842    0.40831   1.00
C6       0.40887    0.80178    0.39817   1.00
H2       0.69352    0.99873    0.39505   1.00
H2       0.77682    1.06613    0.40026   1.00
H2       0.71958    1.08068    0.38577   1.00
H2       0.70809    1.16824    0.40922   1.00
H2       0.73402    1.16964    0.43443   1.00
H2       0.78670    1.17396    0.41428   1.00
H2       0.59424    0.98977    0.48925   1.00
H2       0.64318    0.95435    0.48110   1.00
H2       0.68383    1.04072    0.48892   1.00
H2       0.61920    1.10481    0.44663   1.00
H2       0.59144    1.08205    0.47162   1.00
H2       0.67960    1.13200    0.46672   1.00
H2       0.80009    1.14339    0.46460   1.00
H2       0.87196    1.13332    0.46116   1.00
H2       0.83896    1.15436    0.44049   1.00
H2       0.78095    1.03167    0.48268   1.00
H2       0.74470    0.95510    0.46913   1.00
H2       0.83263    1.01099    0.46787   1.00
H2       0.58167    0.76047    0.42056   1.00
H2       0.52483    0.70569    0.40212   1.00
H2       0.54843    0.79218    0.40204   1.00
H2       0.46202    0.63005    0.43141   1.00
H2       0.50945    0.68878    0.45046   1.00
H2       0.41995    0.65197    0.44953   1.00
H2       0.35498    0.79767    0.47865   1.00
H2       0.43981    0.85914    0.47319   1.00
H2       0.37335    0.85041    0.45712   1.00
H2       0.32569    0.67653    0.43612   1.00
H2       0.28948    0.69374    0.45724   1.00
H2       0.30728    0.74393    0.43518   1.00
H2       0.55088    0.89634    0.40111   1.00
H2       0.50026    0.93469    0.39723   1.00
H2       0.54142    0.94433    0.42048   1.00
H2       0.39377    0.83199    0.38885   1.00
H2       0.43815    0.78639    0.38855   1.00
H2       0.36204    0.75605    0.40270   1.00
C4       0.17411    -0.12651   0.45268   1.00
C4       0.20258    -0.14984   0.46792   1.00
C3       0.12385    -0.10805   0.45672   1.00
C3       0.17926    -0.16295   0.48831   1.00
C3       0.19597    -0.12217   0.43216   1.00
C3       0.25758    -0.16072   0.46269   1.00
C2       0.11660    -0.08304   0.42086   1.00
C2       0.26181    -0.19843   0.49774   1.00
C3       0.09559    -0.08728   0.44124   1.00
C3       0.20845    -0.18596   0.50286   1.00
C3       0.16776    -0.09988   0.41682   1.00
C3       0.28432    -0.18670   0.47736   1.00
H1       0.10649    -0.10893   0.47103   1.00
H1       0.14011    -0.15657   0.49316   1.00
C5       0.24609    -0.13985   0.42709   1.00
C5       0.28524    -0.14624   0.44283   1.00
H1       0.05905    -0.07504   0.44504   1.00
H1       0.18991    -0.19402   0.51742   1.00
H1       0.18530    -0.09521   0.40226   1.00
H1       0.32069    -0.19835   0.47305   1.00
O3       0.25871    -0.14656   0.40702   1.00
O3       0.34638    -0.14335   0.43853   1.00
Si1      0.21878    -0.22135   0.39617   1.00
Si1      0.41742    -0.07227   0.44262   1.00
C6       0.24687    -0.19341   0.37118   1.00
C6       0.25402    -0.26970   0.40574   1.00
C6       0.12916    -0.26087   0.39803   1.00
C6       0.41274    -0.00303   0.45324   1.00
C6       0.46169    -0.09703   0.45925   1.00
C6       0.46229    -0.04783   0.41949   1.00
C6       0.24130    -0.13055   0.36381   1.00
H2       0.30147    -0.17504   0.37229   1.00
C6       0.22082    -0.24480   0.35292   1.00
H2       0.30492    -0.23000   0.41031   1.00
C6       0.22124    -0.31420   0.42510   1.00
C6       0.26547    -0.31681   0.39082   1.00
H2       0.11995    -0.21966   0.39359   1.00
C6       0.08585    -0.32143   0.38318   1.00
C6       0.09371    -0.28732   0.41920   1.00
C6       0.36986    0.02326    0.44180   1.00
C6       0.39572    -0.00419   0.47632   1.00
H2       0.46548    0.03841    0.45215   1.00
H2       0.43305    -0.10818   0.47339   1.00
C6       0.46167    -0.16425   0.45364   1.00
C6       0.53709    -0.04278   0.46447   1.00
H2       0.48670    -0.07887   0.41859   1.00
C6       0.41824    -0.06524   0.39987   1.00
C6       0.52089    0.02795    0.41710   1.00
H2       0.26792    -0.08714   0.37405   1.00
H2       0.18811    -0.14300   0.36284   1.00
H2       0.26445    -0.11331   0.34885   1.00
H2       0.26102    -0.22905   0.34152   1.00
H2       0.20574    -0.29663   0.35741   1.00
H2       0.17726    -0.24647   0.34525   1.00
H2       0.25562    -0.32951   0.43189   1.00
H2       0.21113    -0.28651   0.43680   1.00
H2       0.17367    -0.36064   0.42145   1.00
H2       0.29706    -0.28808   0.37794   1.00
H2       0.29231    -0.33981   0.39825   1.00
H2       0.21697    -0.35828   0.38521   1.00
H2       0.10052    -0.36054   0.38418   1.00
H2       0.03119    -0.34576   0.38637   1.00
H2       0.09145    -0.30393   0.36759   1.00
H2       0.08249    -0.33927   0.42230   1.00
H2       0.12367    -0.25610   0.43182   1.00
H2       0.04515    -0.28783   0.41956   1.00
H2       0.31584    -0.00688   0.44548   1.00
H2       0.38647    0.07593    0.44610   1.00
H2       0.37533    0.02267    0.42541   1.00
H2       0.40417    0.04566    0.48117   1.00
H2       0.34280    -0.04112   0.47972   1.00
H2       0.42818    -0.01536   0.48590   1.00
H2       0.47996    -0.18150   0.46642   1.00
H2       0.41028    -0.20556   0.45012   1.00
H2       0.49436    -0.15730   0.44064   1.00
H2       0.54174    0.00557    0.46918   1.00
H2       0.55570    -0.06051   0.47706   1.00
H2       0.57092    -0.03336   0.45157   1.00
H2       0.38889    -0.03905   0.39931   1.00
H2       0.44959    -0.05208   0.38620   1.00
H2       0.38254    -0.11967   0.39923   1.00
H2       0.55126    0.03403    0.40354   1.00
H2       0.50066    0.06261    0.41569   1.00
H2       0.55591    0.04450    0.42993   1.00
C4       0.30547    0.12599    0.04883   1.00
C4       0.35601    0.14813    0.03324   1.00
C3       0.26692    0.05733    0.05551   1.00
C3       0.36864    0.10297    0.02152   1.00
C3       0.29153    0.17461    0.05817   1.00
C3       0.39665    0.21927    0.02900   1.00
C2       0.20179    0.08471    0.07976   1.00
C2       0.45809    0.19676    0.00164   1.00
C3       0.21624    0.03714    0.07046   1.00
C3       0.41870    0.12663    0.00628   1.00
C3       0.24108    0.15344    0.07349   1.00
C3       0.44480    0.24180    0.01301   1.00
H1       0.27469    0.02003    0.04976   1.00
H1       0.34157    0.05155    0.02361   1.00
C5       0.32827    0.24409    0.05220   1.00
C5       0.38870    0.26753    0.04060   1.00
H1       0.18965    -0.01332   0.07458   1.00
H1       0.42600    0.09168    -0.00159   1.00
H1       0.23296    0.18921    0.08045   1.00
H1       0.47040    0.29244    0.00931   1.00
O3       0.30714    0.28838    0.05870   1.00
O3       0.43595    0.33635    0.03954   1.00
Si1      0.25590    0.30196    0.04456   1.00
Si1      0.50396    0.36684    0.05375   1.00
C6       0.23970    0.35028    0.06240   1.00
C6       0.30389    0.35267    0.02389   1.00
C6       0.18028    0.22648    0.03794   1.00
C6       0.51532    0.30951    0.06923   1.00
C6       0.57081    0.40455    0.03610   1.00
C6       0.50573    0.43226    0.06866   1.00
C6       0.22128    0.31996    0.08438   1.00
H2       0.28954    0.39635    0.06375   1.00
C6       0.18823    0.37577    0.05758   1.00
H2       0.35552    0.37843    0.03007   1.00
C6       0.30722    0.31612    0.00415   1.00
C6       0.29103    0.41086    0.01639   1.00
H2       0.16390    0.20021    0.05251   1.00
C6       0.11924    0.23413    0.02997   1.00
C6       0.18373    0.17476    0.02276   1.00
C6       0.45805    0.26538    0.08485   1.00
C6       0.53762    0.26079    0.05933   1.00
H2       0.55938    0.34397    0.07840   1.00
H2       0.56854    0.36120    0.02817   1.00
C6       0.56333    0.44899    0.01920   1.00
C6       0.64491    0.44732    0.04464   1.00
H2       0.52672    0.47627    0.05852   1.00
C6       0.43525    0.42197    0.07546   1.00
C6       0.55207    0.45586    0.08801   1.00
H2       0.26045    0.31035    0.09055   1.00
H2       0.17276    0.27195    0.08459   1.00
H2       0.21719    0.35530    0.09480   1.00
H2       0.20509    0.42508    0.06484   1.00
H2       0.18337    0.38215    0.04144   1.00
H2       0.13715    0.34112    0.06340   1.00
H2       0.34912    0.35159    -0.00560   1.00
H2       0.31652    0.27436    0.00742   1.00
H2       0.26018    0.29632    -0.00461   1.00
H2       0.29753    0.44598    0.02866   1.00
H2       0.32747    0.44169    0.00459   1.00
H2       0.23988    0.39001    0.01004   1.00
H2       0.13483    0.26968    0.01725   1.00
H2       0.07644    0.18541    0.02492   1.00
H2       0.09852    0.25165    0.04188   1.00
H2       0.18006    0.18718    0.00698   1.00
H2       0.23002    0.17212    0.02409   1.00
H2       0.14120    0.12329    0.02552   1.00
H2       0.41677    0.21986    0.07784   1.00
H2       0.47849    0.24820    0.09708   1.00
H2       0.43637    0.29376    0.09188   1.00
H2       0.55176    0.23581    0.07101   1.00
H2       0.49701    0.22055    0.05042   1.00
H2       0.58223    0.28817    0.04961   1.00
H2       0.60071    0.46038    0.00714   1.00
H2       0.51299    0.42216    0.01211   1.00
H2       0.57114    0.49737    0.02514   1.00
H2       0.65549    0.41933    0.05619   1.00
H2       0.68228    0.45957    0.03251   1.00
H2       0.65383    0.49542    0.05117   1.00
H2       0.40764    0.37740    0.08517   1.00
H2       0.44062    0.46644    0.08358   1.00
H2       0.40384    0.41497    0.06223   1.00
H2       0.55692    0.50302    0.09410   1.00
H2       0.53097    0.41742    0.09999   1.00
H2       0.60355    0.46630    0.08467   1.00
C4       0.82062    0.69516    0.04865   1.00
C4       0.79234    0.64455    0.03307   1.00
C3       0.79644    0.74067    0.05321   1.00
C3       0.74136    0.63849    0.01931   1.00
C3       0.87692    0.70180    0.06022   1.00
C3       0.81579    0.59690    0.03101   1.00
C2       0.88274    0.79837    0.07972   1.00
C2       0.73885    0.54175    0.00168   1.00
C3       0.82685    0.79111    0.06823   1.00
C3       0.71486    0.58812    0.00416   1.00
C3       0.90607    0.75219    0.07557   1.00
C3       0.79053    0.54841    0.01510   1.00
H1       0.75587    0.73835    0.04579   1.00
H1       0.72227    0.67075    0.01980   1.00
C5       0.90354    0.65789    0.05644   1.00
C5       0.86470    0.59820    0.04469   1.00
H1       0.80749    0.82290    0.07075   1.00
H1       0.67764    0.58579    -0.00525   1.00
H1       0.94520    0.75511    0.08412   1.00
H1       0.81097    0.51753    0.01302   1.00
O3       0.96441    0.67162    0.06516   1.00
O3       0.87801    0.54495    0.04555   1.00
Si1      1.03566    0.71622    0.05272   1.00
Si1      0.82933    0.47875    0.05956   1.00
C6       1.09136    0.72548    0.07276   1.00
C6       1.03787    0.66370    0.03335   1.00
C6       1.04877    0.79614    0.04453   1.00
C6       0.75983    0.47711    0.07230   1.00
C6       0.79870    0.41079    0.04226   1.00
C6       0.88260    0.46887    0.07704   1.00
C6       1.07607    0.74795    0.09369   1.00
H2       1.08032    0.67314    0.07501   1.00
C6       1.17078    0.76917    0.07007   1.00
H2       1.00480    0.61281    0.03951   1.00
C6       1.00720    0.66458    0.01216   1.00
C6       1.10720    0.66706    0.02858   1.00
H2       1.03739    0.81574    0.05824   1.00
C6       1.12300    0.85097    0.03817   1.00
C6       1.00261    0.79928    0.02724   1.00
C6       0.77508    0.53700    0.08713   1.00
C6       0.69476    0.46273    0.06001   1.00
H2       0.74178    0.43217    0.08195   1.00
H2       0.76393    0.41845    0.03262   1.00
C6       0.85273    0.41056    0.02748   1.00
C6       0.75662    0.33693    0.05102   1.00
H2       0.90391    0.44280    0.06838   1.00
C6       0.94567    0.53575    0.08477   1.00
C6       0.84891    0.42392    0.09629   1.00
H2       1.02379    0.71347    0.09863   1.00
H2       1.08343    0.79942    0.09288   1.00
H2       1.10943    0.74741    0.10559   1.00
H2       1.19575    0.74717    0.07899   1.00
H2       1.18694    0.77185    0.05441   1.00
H2       1.19130    0.82147    0.07543   1.00
H2       0.99842    0.62042    0.00312   1.00
H2       0.95805    0.66198    0.01349   1.00
H2       1.04171    0.71025    0.00359   1.00
H2       1.12855    0.65688    0.04208   1.00
H2       1.10061    0.62846    0.01741   1.00
H2       1.14433    0.71681    0.02243   1.00
H2       1.14311    0.83091    0.02670   1.00
H2       1.12534    0.89696    0.03199   1.00
H2       1.15717    0.86834    0.05113   1.00
H2       1.02293    0.80004    0.01217   1.00
H2       0.95072    0.75698    0.02752   1.00
H2       0.99964    0.84584    0.02870   1.00
H2       0.77937    0.58103    0.07911   1.00
H2       0.73378    0.52121    0.09814   1.00
H2       0.82178    0.55346    0.09573   1.00
H2       0.65315    0.45381    0.07028   1.00
H2       0.70378    0.50530    0.05030   1.00
H2       0.67568    0.41718    0.05060   1.00
H2       0.82742    0.37378    0.01523   1.00
H2       0.88377    0.46035    0.02034   1.00
H2       0.88686    0.39696    0.03522   1.00
H2       0.71609    0.33171    0.06110   1.00
H2       0.73214    0.30004    0.03873   1.00
H2       0.78914    0.32238    0.05932   1.00
H2       0.93098    0.56798    0.09311   1.00
H2       0.97809    0.52507    0.09458   1.00
H2       0.97676    0.56496    0.07198   1.00
H2       0.88502    0.41323    0.10420   1.00
H2       0.83222    0.44942    0.10701   1.00
H2       0.80500    0.37475    0.09237   1.00
C4       -0.12652   0.17409    0.04732   1.00
C4       -0.14986   0.20257    0.03208   1.00
C3       -0.10824   0.12371    0.04329   1.00
C3       -0.16314   0.17913    0.01170   1.00
C3       -0.12200   0.19610    0.06783   1.00
C3       -0.16054   0.25770    0.03729   1.00
C2       -0.08304   0.11660    0.07913   1.00
C2       -0.19843   0.26181    0.00227   1.00
C3       -0.08746   0.09544    0.05877   1.00
C3       -0.18615   0.20833    -0.00285   1.00
C3       -0.09970   0.16788    0.08317   1.00
C3       -0.18653   0.28445    0.02262   1.00
H1       -0.10926   0.10623    0.02899   1.00
H1       -0.15690   0.13988    0.00686   1.00
C5       -0.13949   0.24635    0.07289   1.00
C5       -0.14588   0.28547    0.05714   1.00
H1       -0.07535   0.05880    0.05497   1.00
H1       -0.19434   0.18969    -0.01739   1.00
H1       -0.09490   0.18553    0.09772   1.00
H1       -0.19803   0.32091    0.02693   1.00
O3       -0.14603   0.25913    0.09296   1.00
O3       -0.14281   0.34671    0.06142   1.00
Si1      -0.22076   0.21940    0.10385   1.00
Si1      -0.07167   0.41764    0.05727   1.00
C6       -0.19262   0.24761    0.12882   1.00
C6       -0.26902   0.25475    0.09429   1.00
C6       -0.26046   0.12976    0.10204   1.00
C6       -0.00260   0.41271    0.04663   1.00
C6       -0.09640   0.46193    0.04065   1.00
C6       -0.04699   0.46264    0.08039   1.00
C6       -0.12980   0.24191    0.13617   1.00
H2       -0.17414   0.30222    0.12769   1.00
C6       -0.24388   0.22176    0.14711   1.00
H2       -0.22927   0.30558    0.08969   1.00
C6       -0.31367   0.22192    0.07496   1.00
C6       -0.31594   0.26642    0.10923   1.00
H2       -0.21931   0.12046    0.10647   1.00
C6       -0.32096   0.08664    0.11693   1.00
C6       -0.28711   0.09420    0.08089   1.00
C6       0.02362    0.36978    0.05807   1.00
C6       -0.00395   0.39553    0.02355   1.00
H2       0.03893    0.46542    0.04769   1.00
H2       -0.10770   0.43319    0.02652   1.00
C6       -0.16349   0.46210    0.04629   1.00
C6       -0.04206   0.53725    0.03538   1.00
H2       -0.07793   0.48717    0.08129   1.00
C6       -0.06437   0.41869    0.10003   1.00
C6       0.02885    0.52114    0.08272   1.00
H2       -0.08644   0.26839    0.12590   1.00
H2       -0.14236   0.18869    0.13716   1.00
H2       -0.11243   0.26514    0.15111   1.00
H2       -0.22798   0.26204    0.15849   1.00
H2       -0.29571   0.20677    0.14265   1.00
H2       -0.24561   0.17820    0.15480   1.00
H2       -0.32892   0.25635    0.06817   1.00
H2       -0.28612   0.21166    0.06325   1.00
H2       -0.36015   0.17444    0.07865   1.00
H2       -0.28708   0.29806    0.12209   1.00
H2       -0.33889   0.29331    0.10180   1.00
H2       -0.35744   0.21800    0.11487   1.00
H2       -0.35998   0.10141    0.11594   1.00
H2       -0.34541   0.03194    0.11377   1.00
H2       -0.30337   0.09229    0.13251   1.00
H2       -0.33905   0.08308    0.07782   1.00
H2       -0.25594   0.12404    0.06825   1.00
H2       -0.28774   0.04558    0.08055   1.00
H2       -0.00664   0.31574    0.05442   1.00
H2       0.07624    0.38625    0.05374   1.00
H2       0.02316    0.37535    0.07446   1.00
H2       0.04582    0.40384    0.01868   1.00
H2       -0.04099   0.34262    0.02019   1.00
H2       -0.01509   0.42801    0.01397   1.00
H2       -0.18077   0.48038    0.03350   1.00
H2       -0.20486   0.41077    0.04984   1.00
H2       -0.15639   0.49489    0.05927   1.00
H2       0.00621    0.54175    0.03065   1.00
H2       -0.05981   0.55585    0.02278   1.00
H2       -0.03248   0.57118    0.04827   1.00
H2       -0.03828   0.38925    0.10059   1.00
H2       -0.05105   0.45013    0.11368   1.00
H2       -0.11881   0.38309    0.10069   1.00
H2       0.03509    0.55161    0.09627   1.00
H2       0.06342    0.50080    0.08413   1.00
H2       0.04538    0.55608    0.06987   1.00
C4       0.54130    1.03220    0.88084   1.00
C4       0.51893    0.97996    0.86576   1.00
C3       0.61099    1.07788    0.88534   1.00
C3       0.56362    0.96419    0.85500   1.00
C3       0.49165    1.03895    0.89237   1.00
C3       0.44804    0.94107    0.86099   1.00
C2       0.58236    1.13427    0.91225   1.00
C2       0.46951    0.87251    0.83581   1.00
C3       0.63100    1.12726    0.90069   1.00
C3       0.53971    0.91238    0.84030   1.00
C3       0.51289    1.08993    0.90753   1.00
C3       0.42467    0.88716    0.84676   1.00
H1       0.64927    1.07677    0.87755   1.00
H1       0.61481    0.98958    0.85761   1.00
C5       0.42111    0.99492    0.88863   1.00
C5       0.40073    0.95567    0.87056   1.00
H1       0.68214    1.15856    0.90336   1.00
H1       0.57446    0.90363    0.83287   1.00
H1       0.47675    1.09540    0.91530   1.00
H1       0.37337    0.85698    0.84446   1.00
O3       0.37362    0.99392    0.90190   1.00
O3       0.33480    0.92836    0.86340   1.00
Si1      0.34459    0.93848    0.92038   1.00
Si1      0.31977    0.96711    0.84496   1.00
C6       0.29871    0.97152    0.93307   1.00
C6       0.28920    0.85806    0.90964   1.00
C6       0.40958    0.94160    0.93593   1.00
C6       0.38941    1.04085    0.83441   1.00
C6       0.28255    0.90368    0.82626   1.00
C6       0.25730    0.98576    0.85362   1.00
C6       0.33782    1.05064    0.93649   1.00
H2       0.25843    0.96167    0.92220   1.00
C6       0.26121    0.93995    0.95365   1.00
H2       0.27293    0.87204    0.89575   1.00
C6       0.31966    0.81265    0.90276   1.00
C6       0.22198    0.80854    0.92121   1.00
H2       0.44139    0.99624    0.93881   1.00
C6       0.38806    0.90679    0.95728   1.00
C6       0.45822    0.91684    0.92727   1.00
C6       0.43407    1.10176    0.84891   1.00
C6       0.44027    1.03333    0.81999   1.00
H2       0.36404    1.05958    0.82438   1.00
H2       0.32465    0.89723    0.82099   1.00
C6       0.22657    0.83144    0.83375   1.00
C6       0.25291    0.92025    0.80707   1.00
H2       0.20940    0.93788    0.85171   1.00
C6       0.25994    1.00338    0.87658   1.00
C6       0.24841    1.04099    0.84191   1.00
H2       0.35710    1.07828    0.92223   1.00
H2       0.38108    1.06633    0.94674   1.00
H2       0.30433    1.06752    0.94300   1.00
H2       0.21484    0.94341    0.95470   1.00
H2       0.24639    0.88655    0.95532   1.00
H2       0.29239    0.96706    0.96679   1.00
H2       0.28435    0.77194    0.89265   1.00
H2       0.36695    0.84163    0.89433   1.00
H2       0.32917    0.78862    0.91574   1.00
H2       0.19125    0.83241    0.92419   1.00
H2       0.18980    0.76283    0.91225   1.00
H2       0.23302    0.79197    0.93557   1.00
H2       0.34710    0.85386    0.95597   1.00
H2       0.43062    0.90707    0.96524   1.00
H2       0.37149    0.93402    0.96720   1.00
H2       0.43735    0.86213    0.92934   1.00
H2       0.46907    0.92726    0.91125   1.00
H2       0.50726    0.94261    0.93516   1.00
H2       0.47261    1.09476    0.85667   1.00
H2       0.46110    1.14935    0.84034   1.00
H2       0.40362    1.10913    0.86033   1.00
H2       0.47432    1.08183    0.81251   1.00
H2       0.47245    1.01824    0.82811   1.00
H2       0.41401    0.99647    0.80790   1.00
H2       0.21507    0.79330    0.82192   1.00
H2       0.24376    0.81521    0.84701   1.00
H2       0.17914    0.83014    0.83769   1.00
H2       0.28951    0.96923    0.80040   1.00
H2       0.24046    0.88153    0.79535   1.00
H2       0.20621    0.92107    0.81062   1.00
H2       0.30719    1.04945    0.88065   1.00
H2       0.21725    1.01030    0.88095   1.00
H2       0.25637    0.96178    0.88569   1.00
H2       0.20186    1.04038    0.84670   1.00
H2       0.29121    1.09223    0.84468   1.00
H2       0.24410    1.03191    0.82560   1.00
C4       -0.02536   0.50853    0.88275   1.00
C4       0.02524    0.53682    0.86717   1.00
C3       -0.02306   0.46879    0.89907   1.00
C3       0.07971    0.52308    0.86532   1.00
C3       -0.08223   0.51938    0.88197   1.00
C3       0.02188    0.58157    0.85256   1.00
C2       -0.13145   0.45026    0.91311   1.00
C2       0.12467    0.59481    0.83495   1.00
C3       -0.07481   0.44012    0.91377   1.00
C3       0.12844    0.55176    0.84977   1.00
C3       -0.13325   0.49108    0.89715   1.00
C3       0.06979    0.60760    0.83651   1.00
H1       0.01639    0.45970    0.90079   1.00
H1       0.08535    0.49150    0.87513   1.00
C5       -0.08761   0.55866    0.86606   1.00
C5       -0.02954   0.59966    0.85391   1.00
H1       -0.07065   0.41142    0.92513   1.00
H1       0.16705    0.54048    0.84928   1.00
H1       -0.17276   0.50087    0.89671   1.00
H1       0.06413    0.63602    0.82544   1.00
O3       -0.14753   0.55955    0.86342   1.00
O3       -0.02592   0.65271    0.84256   1.00
Si1      -0.20529   0.50589    0.84774   1.00
Si1      0.01862    0.73036    0.85124   1.00
C6       -0.27004   0.52438    0.85413   1.00
C6       -0.17490   0.53326    0.82293   1.00
C6       -0.23073   0.41993    0.85295   1.00
C6       0.06267    0.74315    0.87442   1.00
C6       0.07749    0.77312    0.83171   1.00
C6       -0.03653   0.76403    0.85273   1.00
C6       -0.28305   0.52701    0.87739   1.00
H2       -0.24864   0.57678    0.84878   1.00
C6       -0.34279   0.48380    0.84429   1.00
H2       -0.13997   0.58767    0.82517   1.00
C6       -0.13179   0.50513    0.81256   1.00
C6       -0.22648   0.52840    0.80630   1.00
H2       -0.23953   0.41688    0.86931   1.00
C6       -0.29919   0.36393    0.84324   1.00
C6       -0.17949   0.39340    0.84904   1.00
C6       0.02047    0.70425    0.89359   1.00
C6       0.12931    0.73834    0.87498   1.00
H2       0.08090    0.79691    0.87750   1.00
H2       0.11156    0.75211    0.83234   1.00
C6       0.04804    0.75879    0.80963   1.00
C6       0.12367    0.85222    0.83366   1.00
H2       -0.03832   0.77997    0.83722   1.00
C6       -0.11221   0.71272    0.85829   1.00
C6       -0.01456   0.82843    0.86633   1.00
H2       -0.23640   0.56303    0.88532   1.00
H2       -0.30258   0.47696    0.88444   1.00
H2       -0.32002   0.54381    0.88006   1.00
H2       -0.36443   0.51718    0.84248   1.00
H2       -0.34227   0.46336    0.82942   1.00
H2       -0.37853   0.44115    0.85373   1.00
H2       -0.10432   0.53622    0.79941   1.00
H2       -0.09332   0.50631    0.82271   1.00
H2       -0.16423   0.45293    0.80724   1.00
H2       -0.25268   0.55569    0.81085   1.00
H2       -0.20039   0.55172    0.79205   1.00
H2       -0.26431   0.47534    0.80308   1.00
H2       -0.29918   0.37063    0.82684   1.00
H2       -0.30838   0.31240    0.84611   1.00
H2       -0.34279   0.36483    0.84975   1.00
H2       -0.18224   0.37574    0.83348   1.00
H2       -0.12677   0.43135    0.85188   1.00
H2       -0.19150   0.35018    0.85900   1.00
H2       0.01193    0.65250    0.89431   1.00
H2       0.04771    0.73024    0.90743   1.00
H2       -0.02889   0.70152    0.89411   1.00
H2       0.15554    0.75681    0.88951   1.00
H2       0.11895    0.68626    0.87320   1.00
H2       0.16566    0.76972    0.86331   1.00
H2       0.08942    0.77794    0.79851   1.00
H2       0.01591    0.70413    0.80683   1.00
H2       0.01785    0.78319    0.80660   1.00
H2       0.14817    0.86697    0.84849   1.00
H2       0.16445    0.87150    0.82233   1.00
H2       0.09451    0.87813    0.83121   1.00
H2       -0.11711   0.69087    0.87336   1.00
H2       -0.14373   0.73671    0.85772   1.00
H2       -0.13354   0.67109    0.84745   1.00
H2       -0.04728   0.85036    0.86356   1.00
H2       -0.01813   0.81580    0.88244   1.00
H2       0.03754    0.86843    0.86313   1.00
C4       0.49245    0.46684    0.88266   1.00
C4       0.46400    0.48891    0.86706   1.00
C3       0.54171    0.51173    0.89683   1.00
C3       0.48643    0.55852    0.86290   1.00
C3       0.47163    0.39618    0.88413   1.00
C3       0.40995    0.43910    0.85485   1.00
C2       0.55003    0.41867    0.91313   1.00
C2       0.40490    0.52946    0.83493   1.00
C3       0.57002    0.48841    0.91157   1.00
C3       0.45729    0.57826    0.84741   1.00
C3       0.49985    0.37350    0.89935   1.00
C3       0.38329    0.46014    0.83876   1.00
H1       0.55830    0.56264    0.89689   1.00
H1       0.52489    0.59694    0.87093   1.00
C5       0.42253    0.34859    0.87044   1.00
C5       0.38317    0.36862    0.85862   1.00
H1       0.60582    0.52332    0.92131   1.00
H1       0.47516    0.62932    0.84521   1.00
H1       0.48303    0.32242    0.90058   1.00
H1       0.34767    0.42401    0.82934   1.00
O3       0.41105    0.28285    0.86969   1.00
O3       0.32275    0.32016    0.84983   1.00
Si1      0.45247    0.26296    0.85334   1.00
Si1      0.25088    0.30150    0.86080   1.00
C6       0.42523    0.18002    0.86252   1.00
C6       0.41802    0.26050    0.82917   1.00
C6       0.54188    0.31519    0.85514   1.00
C6       0.25377    0.34657    0.88302   1.00
C6       0.20674    0.31775    0.84173   1.00
C6       0.20702    0.21312    0.86556   1.00
C6       0.42993    0.17343    0.88607   1.00
H2       0.37076    0.15356    0.85909   1.00
C6       0.45280    0.13485    0.85304   1.00
H2       0.36667    0.24980    0.83294   1.00
C6       0.45045    0.32740    0.81624   1.00
C6       0.40821    0.20301    0.81404   1.00
H2       0.55045    0.31533    0.87146   1.00
C6       0.58656    0.28849    0.84491   1.00
C6       0.57655    0.39199    0.84843   1.00
C6       0.29627    0.34446    0.90141   1.00
C6       0.26962    0.42213    0.88132   1.00
H2       0.20081    0.31900    0.88810   1.00
H2       0.23469    0.37318    0.84031   1.00
C6       0.20826    0.29009    0.82008   1.00
C6       0.13083    0.29675    0.84606   1.00
H2       0.18344    0.19048    0.85103   1.00
C6       0.25184    0.18085    0.87091   1.00
C6       0.14767    0.18436    0.88146   1.00
H2       0.40230    0.19410    0.89423   1.00
H2       0.48289    0.20047    0.89123   1.00
H2       0.40734    0.12005    0.89064   1.00
H2       0.41319    0.08108    0.85351   1.00
H2       0.46849    0.14760    0.83732   1.00
H2       0.49632    0.13896    0.86142   1.00
H2       0.41637    0.32331    0.80389   1.00
H2       0.45943    0.37153    0.82518   1.00
H2       0.49859    0.33749    0.80946   1.00
H2       0.37696    0.15248    0.82065   1.00
H2       0.38172    0.20397    0.80027   1.00
H2       0.45726    0.20899    0.80945   1.00
H2       0.57271    0.27568    0.82899   1.00
H2       0.64102    0.32614    0.84555   1.00
H2       0.58139    0.24392    0.85272   1.00
H2       0.58848    0.39846    0.83226   1.00
H2       0.54573    0.41528    0.85147   1.00
H2       0.62464    0.42211    0.85658   1.00
H2       0.35018    0.38212    0.89989   1.00
H2       0.27866    0.35590    0.91553   1.00
H2       0.29160    0.29454    0.90329   1.00
H2       0.26012    0.43953    0.89579   1.00
H2       0.32257    0.45711    0.87737   1.00
H2       0.23725    0.42785    0.87017   1.00
H2       0.18989    0.31238    0.80874   1.00
H2       0.26008    0.30377    0.81566   1.00
H2       0.17633    0.23476    0.81917   1.00
H2       0.12512    0.31577    0.86071   1.00
H2       0.11215    0.31822    0.83454   1.00
H2       0.09771    0.24142    0.84577   1.00
H2       0.28046    0.20148    0.88492   1.00
H2       0.22116    0.12549    0.87245   1.00
H2       0.28824    0.19100    0.85882   1.00
H2       0.11809    0.12866    0.88077   1.00
H2       0.16714    0.19857    0.89691   1.00
H2       0.11212    0.20265    0.87863   1.00
C4       0.36448    0.20866    0.28548   1.00
C4       0.31224    0.18584    0.30056   1.00
C3       0.39349    0.27347    0.27594   1.00
C3       0.27950    0.22288    0.30628   1.00
C3       0.38874    0.16421    0.27922   1.00
C3       0.29120    0.12261    0.31065   1.00
C2       0.46754    0.24970    0.25437   1.00
C2       0.20592    0.13549    0.33089   1.00
C3       0.44332    0.29332    0.26074   1.00
C3       0.22825    0.19874    0.32116   1.00
C3       0.43995    0.18569    0.26413   1.00
C3       0.23745    0.09782    0.32498   1.00
H1       0.37944    0.30824    0.27982   1.00
H1       0.29161    0.26827    0.29971   1.00
C5       0.36190    0.09872    0.28815   1.00
C5       0.32339    0.08412    0.30629   1.00
H1       0.46208    0.34061    0.25428   1.00
H1       0.20679    0.22798    0.32480   1.00
H1       0.45821    0.15401    0.26020   1.00
H1       0.22002    0.05048    0.33111   1.00
O3       0.37688    0.05195    0.27981   1.00
O3       0.31360    0.03042    0.31855   1.00
Si1      0.32517    -0.00317   0.26320   1.00
Si1      0.36082    0.04643    0.33876   1.00
C6       0.37776    -0.03681   0.25623   1.00
C6       0.25222    -0.06395   0.27640   1.00
C6       0.30862    0.03511    0.24228   1.00
C6       0.42042    0.13239    0.34449   1.00
C6       0.30059    0.01139    0.35839   1.00
C6       0.40239    -0.00151   0.33680   1.00
C6       0.45407    0.01687    0.25154   1.00
H2       0.37906    -0.06224   0.27016   1.00
C6       0.35567    -0.09198   0.23907   1.00
H2       0.27232    -0.06077   0.29166   1.00
C6       0.19107    -0.05073   0.27888   1.00
C6       0.21906    -0.14071   0.27016   1.00
H2       0.35980    0.07543    0.23810   1.00
C6       0.27780    -0.00960   0.22280   1.00
C6       0.26467    0.07049    0.24536   1.00
C6       0.47517    0.17551    0.32812   1.00
C6       0.39473    0.17974    0.35337   1.00
H2       0.44901    0.12725    0.35702   1.00
H2       0.27947    0.04531    0.35934   1.00
C6       0.23808    -0.06129   0.35438   1.00
C6       0.32760    0.00942    0.38007   1.00
H2       0.36404    -0.05252   0.34175   1.00
C6       0.42265    -0.01148   0.31500   1.00
C6       0.46650    0.01947    0.35045   1.00
H2       0.47800    0.05194    0.26423   1.00
H2       0.45832    0.04702    0.23811   1.00
H2       0.48418    -0.00797   0.24890   1.00
H2       0.37457    -0.12686   0.24249   1.00
H2       0.30067    -0.12251   0.23733   1.00
H2       0.37680    -0.06942   0.22431   1.00
H2       0.15622    -0.08337   0.29073   1.00
H2       0.20782    0.00153    0.28339   1.00
H2       0.16183    -0.06171   0.26485   1.00
H2       0.25591    -0.15834   0.27084   1.00
H2       0.17765    -0.17355   0.28047   1.00
H2       0.19776    -0.14910   0.25487   1.00
H2       0.23158    -0.05751   0.22638   1.00
H2       0.26485    0.01662    0.21120   1.00
H2       0.31426    -0.02077   0.21560   1.00
H2       0.21018    0.03460    0.24377   1.00
H2       0.27191    0.09473    0.26003   1.00
H2       0.27821    0.11027    0.23394   1.00
H2       0.45536    0.19638    0.31687   1.00
H2       0.51931    0.21875    0.33518   1.00
H2       0.49393    0.14595    0.32021   1.00
H2       0.43769    0.22777    0.35875   1.00
H2       0.36792    0.19278    0.34214   1.00
H2       0.36116    0.15682    0.36639   1.00
H2       0.19832    -0.07364   0.36573   1.00
H2       0.21512    -0.06404   0.33957   1.00
H2       0.25216    -0.10084   0.35499   1.00
H2       0.37032    0.05891    0.38444   1.00
H2       0.28750    -0.00393   0.39138   1.00
H2       0.34378    -0.02855   0.38103   1.00
H2       0.45931    0.03675    0.30800   1.00
H2       0.44443    -0.04499   0.31499   1.00
H2       0.37769    -0.03529   0.30541   1.00
H2       0.48110    -0.01984   0.35017   1.00
H2       0.51030    0.06707    0.34525   1.00
H2       0.45673    0.02586    0.36626   1.00
C4       0.84043    0.63389    0.28604   1.00
C4       0.87063    0.68597    0.30115   1.00
C3       0.84560    0.57394    0.28608   1.00
C3       0.91409    0.68631    0.31674   1.00
C3       0.80376    0.64217    0.26972   1.00
C3       0.85687    0.74098    0.30087   1.00
C2       0.78079    0.53258    0.25437   1.00
C2       0.93096    0.79396    0.33089   1.00
C3       0.81696    0.52484    0.27064   1.00
C3       0.94293    0.73846    0.33131   1.00
C3       0.77414    0.59144    0.25449   1.00
C3       0.88877    0.79453    0.31517   1.00
H1       0.87013    0.56407    0.29738   1.00
H1       0.92642    0.64891    0.31788   1.00
C5       0.79666    0.70093    0.26877   1.00
C5       0.81190    0.74269    0.28623   1.00
H1       0.82277    0.48275    0.27139   1.00
H1       0.97350    0.73573    0.34234   1.00
H1       0.74638    0.59716    0.24318   1.00
H1       0.88187    0.83570    0.31397   1.00
O3       0.77140    0.71428    0.25143   1.00
O3       0.78738    0.78741    0.28809   1.00
Si1      0.82388    0.76373    0.23393   1.00
Si1      0.72020    0.76553    0.30213   1.00
C6       0.76182    0.74964    0.21543   1.00
C6       0.86344    0.84801    0.24319   1.00
C6       0.88036    0.73672    0.22528   1.00
C6       0.68369    0.68658    0.31504   1.00
C6       0.74903    0.83212    0.31986   1.00
C6       0.65870    0.76915    0.28664   1.00
C6       0.70625    0.67330    0.21165   1.00
H2       0.73469    0.77295    0.22241   1.00
C6       0.78303    0.78244    0.19376   1.00
H2       0.82592    0.84523    0.25411   1.00
C6       0.93167    0.87568    0.25529   1.00
C6       0.87573    0.90670    0.22821   1.00
H2       0.84597    0.68232    0.22265   1.00
C6       0.91772    0.76672    0.20463   1.00
C6       0.93819    0.74245    0.23974   1.00
C6       0.66026    0.62048    0.30219   1.00
C6       0.72008    0.67916    0.33428   1.00
H2       0.63679    0.68214    0.32111   1.00
H2       0.78412    0.82470    0.32942   1.00
C6       0.79201    0.90611    0.31116   1.00
C6       0.69483    0.83279    0.33441   1.00
H2       0.67419    0.82319    0.28639   1.00
C6       0.65746    0.74928    0.26394   1.00
C6       0.58269    0.73071    0.29393   1.00
H2       0.68014    0.64818    0.22568   1.00
H2       0.72874    0.64452    0.20523   1.00
H2       0.66700    0.66937    0.20118   1.00
H2       0.74504    0.79455    0.18799   1.00
H2       0.83206    0.82932    0.19364   1.00
H2       0.78584    0.74788    0.18276   1.00
H2       0.94292    0.92172    0.26373   1.00
H2       0.92929    0.83911    0.26643   1.00
H2       0.97456    0.88885    0.24512   1.00
H2       0.82834    0.89708    0.22101   1.00
H2       0.89567    0.95544    0.23614   1.00
H2       0.91252    0.91314    0.21646   1.00
H2       0.94445    0.82239    0.20476   1.00
H2       0.95509    0.75091    0.20119   1.00
H2       0.88218    0.74831    0.19199   1.00
H2       0.98440    0.79226    0.23871   1.00
H2       0.92351    0.73414    0.25557   1.00
H2       0.95223    0.70430    0.23560   1.00
H2       0.70249    0.61181    0.29895   1.00
H2       0.62196    0.57575    0.31045   1.00
H2       0.63728    0.62204    0.28785   1.00
H2       0.68684    0.63117    0.34212   1.00
H2       0.76671    0.67890    0.33051   1.00
H2       0.73248    0.71962    0.34530   1.00
H2       0.81713    0.94273    0.32345   1.00
H2       0.83227    0.91051    0.30104   1.00
H2       0.76053    0.92171    0.30278   1.00
H2       0.66356    0.78342    0.34170   1.00
H2       0.71995    0.87017    0.34653   1.00
H2       0.66130    0.84656    0.32635   1.00
H2       0.64501    0.69641    0.26217   1.00
H2       0.62077    0.75672    0.25516   1.00
H2       0.70718    0.78150    0.25717   1.00
H2       0.55172    0.74530    0.28478   1.00
H2       0.56026    0.67547    0.29268   1.00
H2       0.57794    0.74289    0.30963   1.00
C4       0.79325    0.15931    0.28602   1.00
C4       0.81520    0.12915    0.30113   1.00
C3       0.72699    0.15142    0.28554   1.00
C3       0.77132    0.08315    0.31614   1.00
C3       0.83938    0.19883    0.27025   1.00
C3       0.88482    0.14561    0.30144   1.00
C2       0.75169    0.21914    0.25438   1.00
C2       0.86312    0.06911    0.33088   1.00
C3       0.70661    0.18016    0.27011   1.00
C3       0.79472    0.05443    0.33073   1.00
C3       0.81825    0.22847    0.25503   1.00
C3       0.90669    0.11387    0.31572   1.00
H1       0.69167    0.12476    0.29644   1.00
H1       0.72097    0.06882    0.31684   1.00
C5       0.90640    0.20873    0.26984   1.00
C5       0.93215    0.19313    0.28741   1.00
H1       0.65788    0.17232    0.27047   1.00
H1       0.76082    0.02194    0.34132   1.00
H1       0.85249    0.25826    0.24414   1.00
H1       0.95559    0.12282    0.31493   1.00
O3       0.94667    0.23693    0.25294   1.00
O3       1.00153    0.21990    0.28992   1.00
Si1      0.94790    0.18739    0.23515   1.00
Si1      1.04320    0.28602    0.30466   1.00
C6       0.99624    0.25208    0.21736   1.00
C6       0.99424    0.14970    0.24453   1.00
C6       0.86616    0.12950    0.22557   1.00
C6       0.99680    0.31848    0.31743   1.00
C6       1.08100    0.25760    0.32251   1.00
C6       1.10873    0.35059    0.29001   1.00
C6       0.97301    0.30587    0.21372   1.00
H2       1.04573    0.28004    0.22487   1.00
C6       1.01148    0.23416    0.19569   1.00
H2       1.02680    0.18670    0.25591   1.00
C6       0.95447    0.07998    0.25594   1.00
C6       1.04385    0.14130    0.22984   1.00
H2       0.84451    0.16251    0.22297   1.00
C6       0.86265    0.09487    0.20468   1.00
C6       0.81388    0.06919    0.23931   1.00
C6       0.95367    0.34087    0.30440   1.00
C6       0.95149    0.27897    0.33613   1.00
H2       1.03738    0.36550    0.32407   1.00
H2       1.03807    0.22046    0.33155   1.00
C6       1.11554    0.21788    0.31382   1.00
C6       1.13296    0.31140    0.33775   1.00
H2       1.14880    0.33716    0.28996   1.00
C6       1.09225    0.35341    0.26719   1.00
C6       1.14289    0.42571    0.29799   1.00
H2       0.97127    0.32993    0.22790   1.00
H2       0.92240    0.28236    0.20680   1.00
H2       1.00852    0.34687    0.20374   1.00
H2       1.06159    0.27407    0.19050   1.00
H2       1.01147    0.18618    0.19528   1.00
H2       0.97471    0.23097    0.18439   1.00
H2       0.98952    0.06961    0.26459   1.00
H2       0.91819    0.07964    0.26683   1.00
H2       0.92718    0.03787    0.24533   1.00
H2       1.08114    0.19001    0.22319   1.00
H2       1.07323    0.12222    0.23788   1.00
H2       1.01584    0.10528    0.21768   1.00
H2       0.89336    0.07000    0.20488   1.00
H2       0.81042    0.05642    0.20064   1.00
H2       0.88001    0.13168    0.19237   1.00
H2       0.81971    0.02431    0.23806   1.00
H2       0.81792    0.08212    0.25526   1.00
H2       0.76169    0.05364    0.23470   1.00
H2       0.90395    0.29775    0.30055   1.00
H2       0.94447    0.37714    0.31280   1.00
H2       0.97935    0.36592    0.29037   1.00
H2       0.93407    0.30997    0.34403   1.00
H2       0.90611    0.23177    0.33175   1.00
H2       0.97942    0.26690    0.34729   1.00
H2       1.12700    0.19254    0.32606   1.00
H2       1.08188    0.17807    0.30322   1.00
H2       1.16318    0.25159    0.30597   1.00
H2       1.11227    0.34039    0.34507   1.00
H2       1.14519    0.28610    0.34983   1.00
H2       1.18068    0.34708    0.33024   1.00
H2       1.05065    0.36400    0.26517   1.00
H2       1.13667    0.39210    0.25895   1.00
H2       1.07736    0.30478    0.26002   1.00
H2       1.18907    0.45892    0.28936   1.00
H2       1.10855    0.44633    0.29661   1.00
H2       1.15817    0.42941    0.31383   1.00
C4       0.79491    0.64044    0.78405   1.00
C4       0.81643    0.69089    0.79966   1.00
C3       0.73935    0.62419    0.77082   1.00
C3       0.78084    0.72563    0.80479   1.00
C3       0.82986    0.60308    0.78160   1.00
C3       0.87694    0.70817    0.81084   1.00
C2       0.75241    0.53536    0.75353   1.00
C2       0.86240    0.79118    0.83173   1.00
C3       0.71841    0.57285    0.75605   1.00
C3       0.80351    0.77486    0.82026   1.00
C3       0.80874    0.55237    0.76636   1.00
C3       0.89728    0.75579    0.82694   1.00
H1       0.71263    0.64934    0.77148   1.00
H1       0.73718    0.71590    0.79753   1.00
C5       0.88585    0.61683    0.79432   1.00
C5       0.91651    0.67748    0.80604   1.00
H1       0.67757    0.56300    0.74701   1.00
H1       0.77605    0.79877    0.82318   1.00
H1       0.83548    0.52731    0.76440   1.00
H1       0.93821    0.76438    0.83564   1.00
O3       0.91203    0.57344    0.79421   1.00
O3       0.98151    0.70285    0.81378   1.00
Si1      0.88454    0.51123    0.81063   1.00
Si1      1.04540    0.76582    0.80204   1.00
C6       0.92663    0.47031    0.80029   1.00
C6       0.91875    0.54756    0.83446   1.00
C6       0.79515    0.45731    0.81016   1.00
C6       1.02788    0.80060    0.78040   1.00
C6       1.08234    0.82865    0.82091   1.00
C6       1.10378    0.73865    0.79591   1.00
C6       0.92012    0.45903    0.77674   1.00
H2       0.98018    0.50777    0.80297   1.00
C6       0.91599    0.40165    0.80945   1.00
H2       0.96447    0.59488    0.83017   1.00
C6       0.87686    0.56916    0.84840   1.00
C6       0.94399    0.50965    0.84882   1.00
H2       0.78495    0.44766    0.79393   1.00
C6       0.76550    0.38558    0.82041   1.00
C6       0.74781    0.48477    0.81802   1.00
C6       0.98896    0.75163    0.76235   1.00
C6       0.99599    0.84761    0.78310   1.00
H2       1.07891    0.83529    0.77458   1.00
H2       1.04508    0.84517    0.82320   1.00
C6       1.09170    0.80385    0.84222   1.00
C6       1.15143    0.89422    0.81574   1.00
H2       1.13202    0.74559    0.80996   1.00
C6       1.07264    0.66168    0.79055   1.00
C6       1.15864    0.77911    0.77923   1.00
H2       0.93710    0.50689    0.76861   1.00
H2       0.86741    0.42368    0.77232   1.00
H2       0.95175    0.43829    0.77138   1.00
H2       0.96294    0.39939    0.80804   1.00
H2       0.90225    0.39558    0.82541   1.00
H2       0.87643    0.35707    0.80148   1.00
H2       0.90908    0.60344    0.86042   1.00
H2       0.85673    0.59672    0.84007   1.00
H2       0.83456    0.52493    0.85568   1.00
H2       0.98194    0.50083    0.84138   1.00
H2       0.96874    0.53992    0.86237   1.00
H2       0.90154    0.46086    0.85386   1.00
H2       0.78327    0.39024    0.83604   1.00
H2       0.70969    0.35773    0.82064   1.00
H2       0.77955    0.35311    0.81205   1.00
H2       0.73891    0.47749    0.83433   1.00
H2       0.76777    0.53848    0.81501   1.00
H2       0.69797    0.45735    0.81062   1.00
H2       0.93400    0.72444    0.76474   1.00
H2       0.99865    0.78048    0.74825   1.00
H2       1.00496    0.71418    0.75986   1.00
H2       0.99724    0.87260    0.76878   1.00
H2       0.94294    0.81924    0.78787   1.00
H2       1.02412    0.88836    0.79404   1.00
H2       1.10384    0.84332    0.85366   1.00
H2       1.04496    0.75856    0.84720   1.00
H2       1.13274    0.79184    0.84223   1.00
H2       1.14901    0.91641    0.80130   1.00
H2       1.16406    0.93331    0.82735   1.00
H2       1.19337    0.88350    0.81513   1.00
H2       1.04070    0.64749    0.77703   1.00
H2       1.11219    0.64823    0.78812   1.00
H2       1.04125    0.63053    0.80303   1.00
H2       1.19773    0.76421    0.77904   1.00
H2       1.13582    0.76948    0.76412   1.00
H2       1.18490    0.83390    0.78198   1.00
C4       0.36169    0.16294    0.78488   1.00
C4       0.30980    0.13259    0.80005   1.00
C3       0.36043    0.20435    0.76891   1.00
C3       0.24858    0.13546    0.79970   1.00
C3       0.41769    0.15069    0.78539   1.00
C3       0.31911    0.09740    0.81659   1.00
C2       0.46683    0.21967    0.75422   1.00
C2       0.20663    0.06858    0.83104   1.00
C3       0.41131    0.23163    0.75393   1.00
C3       0.19868    0.10490    0.81486   1.00
C3       0.46917    0.17973    0.77035   1.00
C3       0.26691    0.06448    0.83125   1.00
H1       0.32263    0.21610    0.76773   1.00
H1       0.23824    0.15946    0.78835   1.00
C5       0.42204    0.10976    0.80095   1.00
C5       0.38008    0.09467    0.81836   1.00
H1       0.40744    0.26080    0.74266   1.00
H1       0.15569    0.10913    0.81392   1.00
H1       0.51001    0.17207    0.77123   1.00
H1       0.27244    0.03583    0.84227   1.00
O3       0.46947    0.08876    0.79951   1.00
O3       0.39598    0.07305    0.83608   1.00
Si1      0.44803    0.01496    0.78935   1.00
Si1      0.43387    0.12805    0.85431   1.00
C6       0.53049    0.02498    0.78874   1.00
C6       0.39519    -0.04853   0.80684   1.00
C6       0.41388    0.00503    0.76469   1.00
C6       0.45011    0.21229    0.85081   1.00
C6       0.37840    0.09075    0.87495   1.00
C6       0.51031    0.12863    0.85977   1.00
C6       0.58839    0.09459    0.78013   1.00
H2       0.54204    0.02559    0.80485   1.00
C6       0.54329    -0.03093   0.77901   1.00
H2       0.41116    -0.02104   0.82121   1.00
C6       0.31639    -0.07784   0.80555   1.00
C6       0.40413    -0.11229   0.80955   1.00
H2       0.45055    0.05291    0.75742   1.00
C6       0.41134    -0.05323   0.75123   1.00
C6       0.34166    -0.00220   0.76175   1.00
C6       0.49346    0.25303    0.83201   1.00
C6       0.38986    0.22740    0.85234   1.00
H2       0.48162    0.23858    0.86396   1.00
H2       0.33398    0.09512    0.87095   1.00
C6       0.35046    0.01273    0.87830   1.00
C6       0.40307    0.12568    0.89613   1.00
H2       0.49436    0.08415    0.86949   1.00
C6       0.54694    0.11711    0.84146   1.00
C6       0.56696    0.19077    0.87183   1.00
H2       0.59099    0.13784    0.78828   1.00
H2       0.58029    0.10017    0.76407   1.00
H2       0.63841    0.09877    0.78172   1.00
H2       0.58420    -0.03329   0.78711   1.00
H2       0.49858    -0.08160   0.77945   1.00
H2       0.55948    -0.01975   0.76319   1.00
H2       0.29133    -0.10506   0.81949   1.00
H2       0.30352    -0.03783   0.80376   1.00
H2       0.29407    -0.11377   0.79299   1.00
H2       0.45652    -0.09744   0.81354   1.00
H2       0.37220    -0.14502   0.82188   1.00
H2       0.38985    -0.14311   0.79575   1.00
H2       0.38502    -0.10229   0.75904   1.00
H2       0.38516    -0.05864   0.73680   1.00
H2       0.46223    -0.04241   0.74709   1.00
H2       0.30060    -0.05507   0.76301   1.00
H2       0.33074    0.02711    0.77255   1.00
H2       0.33791    0.01565    0.74664   1.00
H2       0.46239    0.24104    0.81837   1.00
H2       0.51644    0.30788    0.83457   1.00
H2       0.53500    0.24320    0.82895   1.00
H2       0.40927    0.28238    0.85271   1.00
H2       0.35533    0.20724    0.83946   1.00
H2       0.36020    0.20677    0.86619   1.00
H2       0.30809    -0.00801   0.88909   1.00
H2       0.33081    -0.01593   0.86420   1.00
H2       0.38952    0.00261    0.88423   1.00
H2       0.42170    0.18034    0.89537   1.00
H2       0.36091    0.10419    0.90700   1.00
H2       0.44351    0.11795    0.90226   1.00
H2       0.56328    0.15736    0.83013   1.00
H2       0.59155    0.11419    0.84630   1.00
H2       0.51253    0.06905    0.83411   1.00
H2       0.60680    0.18032    0.87693   1.00
H2       0.59125    0.23675    0.86248   1.00
H2       0.54655    0.20178    0.88538   1.00
C4       0.83674    0.19899    0.78505   1.00
C4       0.86703    0.17729    0.80019   1.00
C3       0.78819    0.15424    0.77070   1.00
C3       0.85654    0.11007    0.80132   1.00
C3       0.85650    0.26944    0.78385   1.00
C3       0.91019    0.22491    0.81515   1.00
C2       0.78040    0.24740    0.75427   1.00
C2       0.93135    0.13779    0.83099   1.00
C3       0.76106    0.17779    0.75566   1.00
C3       0.88728    0.09066    0.81641   1.00
C3       0.82758    0.29197    0.76880   1.00
C3       0.94299    0.20510    0.82969   1.00
H1       0.77093    0.10320    0.77081   1.00
H1       0.82660    0.07336    0.79114   1.00
C5       0.90480    0.31687    0.79774   1.00
C5       0.92093    0.29217    0.81544   1.00
H1       0.72650    0.14314    0.74560   1.00
H1       0.87738    0.04119    0.81659   1.00
H1       0.84081    0.34233    0.76848   1.00
H1       0.97712    0.24094    0.83949   1.00
O3       0.93212    0.38578    0.79448   1.00
O3       0.95099    0.33454    0.83192   1.00
Si1      1.00396    0.42840    0.78217   1.00
Si1      0.90336    0.32922    0.85119   1.00
C6       1.00317    0.50571    0.78008   1.00
C6       1.06966    0.43713    0.79843   1.00
C6       1.00272    0.39386    0.75805   1.00
C6       0.81575    0.26715    0.85041   1.00
C6       0.94219    0.31190    0.87160   1.00
C6       0.91363    0.41086    0.85493   1.00
C6       0.93437    0.49944    0.77276   1.00
H2       1.00886    0.52239    0.79586   1.00
C6       1.06046    0.56791    0.76808   1.00
H2       1.04710    0.43299    0.81336   1.00
C6       1.09057    0.38093    0.79785   1.00
C6       1.13855    0.50647    0.79861   1.00
H2       0.95460    0.38579    0.75175   1.00
C6       1.05949    0.44092    0.74261   1.00
C6       1.00073    0.32361    0.75649   1.00
C6       0.77241    0.26910    0.83223   1.00
C6       0.79309    0.19023    0.85383   1.00
H2       0.79595    0.28012    0.86374   1.00
H2       0.93104    0.25985    0.86877   1.00
C6       1.02182    0.35585    0.87272   1.00
C6       0.91497    0.31221    0.89338   1.00
H2       0.96142    0.43836    0.86333   1.00
C6       0.92453    0.45432    0.83548   1.00
C6       0.85886    0.41673    0.86791   1.00
H2       0.89175    0.46468    0.78237   1.00
H2       0.92261    0.48067    0.75717   1.00
H2       0.93648    0.54871    0.77337   1.00
H2       1.07035    0.61572    0.77513   1.00
H2       1.10845    0.56794    0.76768   1.00
H2       1.04582    0.56960    0.75240   1.00
H2       1.12042    0.38418    0.81128   1.00
H2       1.04644    0.32975    0.79781   1.00
H2       1.12178    0.38676    0.78456   1.00
H2       1.13048    0.54911    0.80194   1.00
H2       1.17287    0.50709    0.81039   1.00
H2       1.16498    0.51564    0.78409   1.00
H2       1.11026    0.46113    0.74918   1.00
H2       1.05760    0.41381    0.72866   1.00
H2       1.05299    0.48315    0.73775   1.00
H2       1.05171    0.32977    0.75674   1.00
H2       0.97192    0.28837    0.76854   1.00
H2       0.97689    0.29836    0.74220   1.00
H2       0.77707    0.24319    0.81893   1.00
H2       0.71833    0.24327    0.83626   1.00
H2       0.78679    0.32097    0.82790   1.00
H2       0.73778    0.15983    0.85577   1.00
H2       0.80617    0.16849    0.84108   1.00
H2       0.81544    0.18249    0.86752   1.00
H2       1.04183    0.33388    0.88364   1.00
H2       1.04525    0.35727    0.85809   1.00
H2       1.03897    0.40821    0.87736   1.00
H2       0.85955    0.28093    0.89420   1.00
H2       0.93580    0.29118    0.90435   1.00
H2       0.92984    0.36388    0.89828   1.00
H2       0.88073    0.43064    0.82531   1.00
H2       0.93445    0.50550    0.83919   1.00
H2       0.96863    0.46031    0.82720   1.00
H2       0.87620    0.46996    0.87170   1.00
H2       0.81061    0.39674    0.85974   1.00
H2       0.84899    0.38932    0.88224   1.00
C4       -0.02860   0.45870    0.38195   1.00
C4       0.02203    0.48108    0.36638   1.00
C3       -0.07525   0.38901    0.38615   1.00
C3       0.02703    0.43636    0.35228   1.00
C3       -0.03405   0.50836    0.39389   1.00
C3       0.07080    0.55199    0.36467   1.00
C2       -0.13173   0.41765    0.41304   1.00
C2       0.12495    0.53048    0.33502   1.00
C3       -0.12565   0.36901    0.40119   1.00
C3       0.07745    0.46026    0.33715   1.00
C3       -0.08443   0.48712    0.40924   1.00
C3       0.11936    0.57534    0.34878   1.00
H1       -0.07382   0.35074    0.37846   1.00
H1       -0.00606   0.38515    0.35251   1.00
C5       0.01103    0.57891    0.39047   1.00
C5       0.07057    0.59933    0.37868   1.00
H1       -0.15828   0.31786    0.40345   1.00
H1       0.07898    0.42550    0.32749   1.00
H1       -0.08650   0.52327    0.41805   1.00
H1       0.15110    0.62664    0.34696   1.00
O3       -0.00146   0.62637    0.39957   1.00
O3       0.12475    0.66532    0.37985   1.00
Si1      -0.04482   0.65516    0.38745   1.00
Si1      0.19048    0.68060    0.39377   1.00
C6       -0.05298   0.70110    0.40784   1.00
C6       0.00849    0.71049    0.36831   1.00
C6       -0.12531   0.59000    0.37904   1.00
C6       0.19041    0.61112    0.40603   1.00
C6       0.25861    0.71783    0.37653   1.00
C6       0.20163    0.74314    0.41166   1.00
C6       -0.07621   0.66212    0.42857   1.00
H2       -0.00031   0.74148    0.41023   1.00
C6       -0.09528   0.73843    0.40554   1.00
H2       0.05915    0.72691    0.37444   1.00
C6       0.00700    0.67992    0.34690   1.00
C6       0.00677    0.77759    0.36401   1.00
H2       -0.14549   0.55826    0.39259   1.00
C6       -0.17897   0.61131    0.37299   1.00
C6       -0.12947   0.54129    0.36142   1.00
C6       0.13009    0.56647    0.42072   1.00
C6       0.20348    0.56028    0.39333   1.00
H2       0.23538    0.63664    0.41573   1.00
H2       0.25009    0.67570    0.36662   1.00
C6       0.26022    0.77364    0.36213   1.00
C6       0.33228    0.74768    0.38528   1.00
H2       0.22857    0.79099    0.40326   1.00
C6       0.13542    0.74039    0.41957   1.00
C6       0.24619    0.75226    0.43085   1.00
H2       -0.04260   0.64298    0.43328   1.00
H2       -0.12810   0.61877    0.42761   1.00
H2       -0.07494   0.69565    0.44070   1.00
H2       -0.07248   0.78486    0.41472   1.00
H2       -0.09751   0.75312    0.38999   1.00
H2       -0.14774   0.70719    0.41084   1.00
H2       0.05153    0.71524    0.33797   1.00
H2       0.00845    0.63270    0.34789   1.00
H2       -0.03833   0.67025    0.33840   1.00
H2       0.01749    0.80840    0.37770   1.00
H2       0.04573    0.80975    0.35296   1.00
H2       -0.04264   0.76639    0.35793   1.00
H2       -0.15813   0.65219    0.36174   1.00
H2       -0.22541   0.56864    0.36664   1.00
H2       -0.19581   0.62791    0.38612   1.00
H2       -0.12967   0.56203    0.34649   1.00
H2       -0.08792   0.53056    0.36150   1.00
H2       -0.17666   0.49219    0.36267   1.00
H2       0.08570    0.52781    0.41256   1.00
H2       0.14501    0.53958    0.43150   1.00
H2       0.11449    0.59690    0.42958   1.00
H2       0.21145    0.52636    0.40334   1.00
H2       0.16069    0.52797    0.38353   1.00
H2       0.24916    0.58656    0.38398   1.00
H2       0.29690    0.78514    0.34985   1.00
H2       0.21063    0.75630    0.35501   1.00
H2       0.27474    0.82111    0.37017   1.00
H2       0.33653    0.71120    0.39510   1.00
H2       0.36909    0.76012    0.37297   1.00
H2       0.34771    0.79441    0.39387   1.00
H2       0.10241    0.69317    0.42768   1.00
H2       0.14694    0.78312    0.42965   1.00
H2       0.10669    0.74379    0.40689   1.00
H2       0.25781    0.79883    0.43905   1.00
H2       0.21993    0.70952    0.44135   1.00
H2       0.29491    0.75666    0.42682   1.00
C4       0.48728    1.02846    0.38199   1.00
C4       0.45899    0.97784    0.36641   1.00
C3       0.46271    1.07356    0.38667   1.00
C3       0.40757    0.97141    0.35277   1.00
C3       0.54399    1.03552    0.39343   1.00
C3       0.48290    0.93060    0.36422   1.00
C2       0.54942    1.13169    0.41305   1.00
C2       0.40551    0.87509    0.33501   1.00
C3       0.49313    1.12401    0.40169   1.00
C3       0.38108    0.92106    0.33762   1.00
C3       0.57315    1.08591    0.40877   1.00
C3       0.45763    0.88213    0.34831   1.00
H1       0.42184    1.07092    0.37936   1.00
H1       0.38814    1.00337    0.35335   1.00
C5       0.57102    0.99203    0.38952   1.00
C5       0.53229    0.93228    0.37778   1.00
H1       0.47347    1.15550    0.40431   1.00
H1       0.34353    0.91844    0.32830   1.00
H1       0.61259    1.08913    0.41723   1.00
H1       0.47837    0.85156    0.34614   1.00
O3       0.63220    1.00619    0.39811   1.00
O3       0.54611    0.87937    0.37853   1.00
Si1      0.70312    1.05123    0.38555   1.00
Si1      0.49807    0.81301    0.39256   1.00
C6       0.75938    1.06088    0.40547   1.00
C6       0.70539    0.99899    0.36610   1.00
C6       0.71545    1.13094    0.37744   1.00
C6       0.42856    0.81077    0.40548   1.00
C6       0.46754    0.74512    0.37525   1.00
C6       0.55200    0.80359    0.40990   1.00
C6       0.74427    1.08309    0.42646   1.00
H2       0.74878    1.00867    0.40767   1.00
C6       0.83871    1.10507    0.40264   1.00
H2       0.67274    0.94803    0.37228   1.00
C6       0.67415    0.99965    0.34499   1.00
C6       0.77488    1.00293    0.36116   1.00
H2       0.70413    1.15033    0.39121   1.00
C6       0.78939    1.18617    0.37098   1.00
C6       0.66872    1.13370    0.36028   1.00
C6       0.44367    0.87050    0.42035   1.00
C6       0.36309    0.79593    0.39333   1.00
H2       0.41100    0.76585    0.41512   1.00
H2       0.43236    0.75247    0.36571   1.00
C6       0.52150    0.74537    0.36033   1.00
C6       0.42608    0.67120    0.38400   1.00
H2       0.57344    0.77783    0.40115   1.00
C6       0.61493    0.87071    0.41757   1.00
C6       0.51894    0.75851    0.42917   1.00
H2       0.69216    1.04831    0.43149   1.00
H2       0.75120    1.13440    0.42571   1.00
H2       0.77801    1.08281    0.43828   1.00
H2       0.86415    1.08335    0.41147   1.00
H2       0.85460    1.10790    0.38695   1.00
H2       0.85899    1.15731    0.40802   1.00
H2       0.66553    0.95561    0.33591   1.00
H2       0.62486    0.99664    0.34644   1.00
H2       0.70825    1.04543    0.33640   1.00
H2       0.79668    0.99295    0.37460   1.00
H2       0.76836    0.96446    0.34996   1.00
H2       0.81163    1.05279    0.35499   1.00
H2       0.80953    1.16639    0.35943   1.00
H2       0.79123    1.23200    0.36486   1.00
H2       0.82383    1.20373    0.38388   1.00
H2       0.68881    1.13466    0.34515   1.00
H2       0.61697    1.09115    0.36063   1.00
H2       0.66537    1.18005    0.36181   1.00
H2       0.44744    0.91440    0.41239   1.00
H2       0.40254    0.85441    0.43145   1.00
H2       0.49060    0.88728    0.42886   1.00
H2       0.32159    0.78667    0.40369   1.00
H2       0.37159    0.83841    0.38367   1.00
H2       0.34412    0.75043    0.38391   1.00
H2       0.49614    0.70856    0.34810   1.00
H2       0.55210    0.79522    0.35318   1.00
H2       0.55604    0.73210    0.36797   1.00
H2       0.38563    0.66564    0.39419   1.00
H2       0.40156    0.63428    0.37173   1.00
H2       0.45903    0.65698    0.39221   1.00
H2       0.60007    0.90266    0.42599   1.00
H2       0.64778    0.86033    0.42728   1.00
H2       0.64565    0.90008    0.40475   1.00
H2       0.55545    0.74816    0.43697   1.00
H2       0.50219    0.78374    0.43997   1.00
H2       0.47519    0.70919    0.42529   1.00
C4       0.54119    0.51272    0.38199   1.00
C4       0.51886    0.54100    0.36641   1.00
C3       0.61087    0.53723    0.38665   1.00
C3       0.56384    0.59236    0.35275   1.00
C3       0.49154    0.45608    0.39345   1.00
C3       0.44772    0.51717    0.36424   1.00
C2       0.58228    0.45058    0.41305   1.00
C2       0.46959    0.59449    0.33501   1.00
C3       0.63090    0.50681    0.40167   1.00
C3       0.53998    0.61884    0.33760   1.00
C3       0.51277    0.42692    0.40879   1.00
C3       0.42452    0.54244    0.34833   1.00
H1       0.64910    0.57804    0.37932   1.00
H1       0.61523    0.61173    0.35331   1.00
C5       0.42102    0.42911    0.38956   1.00
C5       0.40003    0.46786    0.37782   1.00
H1       0.68205    0.52642    0.40427   1.00
H1       0.57491    0.65634    0.32826   1.00
H1       0.47655    0.38753    0.41727   1.00
H1       0.37321    0.52175    0.34617   1.00
O3       0.37398    0.36798    0.39818   1.00
O3       0.33332    0.45413    0.37859   1.00
Si1      0.34797    0.29701    0.38564   1.00
Si1      0.31514    0.50227    0.39262   1.00
C6       0.30139    0.24084    0.40557   1.00
C6       0.29342    0.29475    0.36620   1.00
C6       0.41525    0.28455    0.37751   1.00
C6       0.38251    0.57178    0.40551   1.00
C6       0.27778    0.53282    0.37530   1.00
C6       0.25182    0.44845    0.40997   1.00
C6       0.33878    0.25598    0.42656   1.00
H2       0.25983    0.25151    0.40778   1.00
C6       0.26615    0.16150    0.40276   1.00
H2       0.27520    0.32747    0.37237   1.00
C6       0.32526    0.32589    0.34508   1.00
C6       0.22780    0.22528    0.36129   1.00
H2       0.44601    0.29588    0.39127   1.00
C6       0.39644    0.21056    0.37106   1.00
C6       0.46472    0.33119    0.36032   1.00
C6       0.42713    0.55665    0.42037   1.00
C6       0.43314    0.63719    0.39333   1.00
H2       0.35522    0.58942    0.41514   1.00
H2       0.32030    0.56793    0.36575   1.00
C6       0.22398    0.47885    0.36041   1.00
C6       0.24543    0.57438    0.38406   1.00
H2       0.20459    0.42703    0.40124   1.00
C6       0.25595    0.38550    0.41766   1.00
C6       0.23992    0.48161    0.42925   1.00
H2       0.35619    0.30812    0.43156   1.00
H2       0.38312    0.24898    0.42579   1.00
H2       0.30478    0.22230    0.43838   1.00
H2       0.21903    0.13613    0.41161   1.00
H2       0.25302    0.14556    0.38708   1.00
H2       0.29808    0.14118    0.40814   1.00
H2       0.28986    0.33454    0.33600   1.00
H2       0.37160    0.37516    0.34650   1.00
H2       0.33687    0.29173    0.33649   1.00
H2       0.19606    0.20356    0.37473   1.00
H2       0.19584    0.23181    0.35009   1.00
H2       0.24084    0.18848    0.35512   1.00
H2       0.35647    0.19043    0.35953   1.00
H2       0.44037    0.20864    0.36493   1.00
H2       0.37957    0.17617    0.38398   1.00
H2       0.44552    0.31106    0.34521   1.00
H2       0.47398    0.38296    0.36066   1.00
H2       0.51439    0.33448    0.36185   1.00
H2       0.46719    0.55279    0.41240   1.00
H2       0.45225    0.59780    0.43145   1.00
H2       0.39696    0.50975    0.42889   1.00
H2       0.46546    0.67871    0.40368   1.00
H2       0.46705    0.62860    0.38366   1.00
H2       0.40663    0.65617    0.38391   1.00
H2       0.21252    0.50419    0.34817   1.00
H2       0.24315    0.44818    0.35326   1.00
H2       0.17619    0.44437    0.36807   1.00
H2       0.28040    0.61484    0.39423   1.00
H2       0.23303    0.59889    0.37179   1.00
H2       0.19828    0.54150    0.39228   1.00
H2       0.30277    0.40033    0.42607   1.00
H2       0.21274    0.35272    0.42738   1.00
H2       0.25451    0.35472    0.40484   1.00
H2       0.19308    0.44517    0.43707   1.00
H2       0.28194    0.49835    0.44003   1.00
H2       0.23441    0.52539    0.42536   1.00
C4       0.20142    0.35861    0.21614   1.00
C4       0.17888    0.30789    0.20059   1.00
C3       0.16441    0.35087    0.23428   1.00
C3       0.11433    0.24719    0.20077   1.00
C3       0.26390    0.42122    0.21343   1.00
C3       0.22292    0.31771    0.18387   1.00
C2       0.24879    0.46495    0.24641   1.00
C2       0.13640    0.20851    0.16833   1.00
C3       0.18720    0.40268    0.24895   1.00
C3       0.09389    0.19854    0.18518   1.00
C3       0.28665    0.47236    0.22859   1.00
C3       0.20019    0.26948    0.16790   1.00
H1       0.11994    0.30726    0.23740   1.00
H1       0.08008    0.23673    0.21215   1.00
C5       0.30339    0.43223    0.19565   1.00
C5       0.28911    0.37582    0.18306   1.00
H1       0.15804    0.39439    0.26170   1.00
H1       0.04688    0.15533    0.18620   1.00
H1       0.33249    0.51624    0.22669   1.00
H1       0.23055    0.27936    0.15542   1.00
O3       0.35722    0.49635    0.19152   1.00
O3       0.33710    0.37974    0.16934   1.00
Si1      0.34546    0.54839    0.17718   1.00
Si1      0.38315    0.34527    0.17525   1.00
C6       0.42633    0.62119    0.18101   1.00
C6       0.33608    0.51850    0.15203   1.00
C6       0.27951    0.56204    0.18589   1.00
C6       0.36725    0.30182    0.19866   1.00
C6       0.36675    0.28776    0.15528   1.00
C6       0.46930    0.40991    0.17372   1.00
C6       0.45117    0.63722    0.20358   1.00
H2       0.46026    0.60640    0.17368   1.00
C6       0.44456    0.69182    0.17144   1.00
H2       0.36328    0.49009    0.15246   1.00
C6       0.26273    0.46702    0.14420   1.00
C6       0.37008    0.57176    0.13453   1.00
H2       0.29147    0.57215    0.20202   1.00
C6       0.27755    0.62558    0.17731   1.00
C6       0.20338    0.50258    0.18457   1.00
C6       0.37256    0.34208    0.21849   1.00
C6       0.30226    0.22971    0.20109   1.00
H2       0.40921    0.29125    0.19954   1.00
H2       0.31399    0.24791    0.15777   1.00
C6       0.36832    0.31540    0.13340   1.00
C6       0.40988    0.25129    0.15450   1.00
H2       0.48095    0.41331    0.15755   1.00
C6       0.48561    0.48303    0.17986   1.00
C6       0.52384    0.39781    0.18460   1.00
H2       0.45081    0.59367    0.21083   1.00
H2       0.41881    0.65051    0.21251   1.00
H2       0.50354    0.67973    0.20449   1.00
H2       0.49869    0.72028    0.16750   1.00
H2       0.41581    0.68687    0.15773   1.00
H2       0.43574    0.72385    0.18198   1.00
H2       0.26511    0.44171    0.13035   1.00
H2       0.23378    0.42674    0.15514   1.00
H2       0.23426    0.49291    0.14067   1.00
H2       0.42470    0.60458    0.13706   1.00
H2       0.36498    0.54659    0.11994   1.00
H2       0.34650    0.60344    0.13299   1.00
H2       0.27739    0.62549    0.16074   1.00
H2       0.23244    0.62727    0.18243   1.00
H2       0.32074    0.67289    0.18263   1.00
H2       0.18024    0.50155    0.16995   1.00
H2       0.19735    0.45248    0.18684   1.00
H2       0.17279    0.50914    0.19623   1.00
H2       0.32566    0.34287    0.22150   1.00
H2       0.38168    0.31811    0.23159   1.00
H2       0.41441    0.39453    0.21791   1.00
H2       0.30463    0.20565    0.21522   1.00
H2       0.25556    0.23222    0.20161   1.00
H2       0.29760    0.19504    0.18891   1.00
H2       0.34638    0.27339    0.12248   1.00
H2       0.33807    0.34073    0.13249   1.00
H2       0.42011    0.35147    0.12847   1.00
H2       0.40999    0.22850    0.16908   1.00
H2       0.38851    0.20993    0.14336   1.00
H2       0.46258    0.28654    0.15011   1.00
H2       0.47353    0.48581    0.19572   1.00
H2       0.53924    0.52064    0.17735   1.00
H2       0.45587    0.49834    0.17062   1.00
H2       0.57539    0.43621    0.17998   1.00
H2       0.52080    0.40073    0.20108   1.00
H2       0.51784    0.34827    0.18077   1.00
C4       0.63384    0.83965    0.21393   1.00
C4       0.68582    0.86994    0.19879   1.00
C3       0.56958    0.83607    0.21242   1.00
C3       0.68118    0.90510    0.18157   1.00
C3       0.64666    0.81215    0.23178   1.00
C3       0.74598    0.86502    0.20077   1.00
C2       0.53271    0.78060    0.24566   1.00
C2       0.79383    0.93115    0.16908   1.00
C3       0.52053    0.80772    0.22790   1.00
C3       0.73339    0.93432    0.16702   1.00
C3       0.59602    0.78262    0.24704   1.00
C3       0.79924    0.89733    0.18640   1.00
H1       0.55643    0.85374    0.20001   1.00
H1       0.63993    0.91089    0.17916   1.00
C5       0.70986    0.81407    0.23423   1.00
C5       0.75304    0.82846    0.21714   1.00
H1       0.47516    0.80699    0.22603   1.00
H1       0.72699    0.95862    0.15479   1.00
H1       0.60520    0.76141    0.25950   1.00
H1       0.84376    0.89707    0.18872   1.00
O3       0.72647    0.79810    0.25274   1.00
O3       0.80385    0.81156    0.21721   1.00
Si1      0.77090    0.85862    0.26905   1.00
Si1      0.79045    0.74242    0.20552   1.00
C6       0.76330    0.80537    0.28962   1.00
C6       0.85544    0.90380    0.26001   1.00
C6       0.73420    0.90946    0.27481   1.00
C6       0.71235    0.69390    0.19252   1.00
C6       0.85814    0.77266    0.18813   1.00
C6       0.80171    0.69120    0.22344   1.00
C6       0.68962    0.74487    0.29401   1.00
H2       0.79204    0.78149    0.28426   1.00
C6       0.79405    0.83613    0.31096   1.00
H2       0.85813    0.86554    0.25061   1.00
C6       0.87627    0.96659    0.24583   1.00
C6       0.91520    0.92789    0.27562   1.00
H2       0.68100    0.87113    0.27767   1.00
C6       0.75986    0.95437    0.29444   1.00
C6       0.73329    0.95893    0.25824   1.00
C6       0.64471    0.66719    0.20484   1.00
C6       0.70063    0.72035    0.17180   1.00
H2       0.71427    0.64830    0.18828   1.00
H2       0.84607    0.80091    0.17708   1.00
C6       0.93033    0.82513    0.19659   1.00
C6       0.86692    0.71842    0.17588   1.00
H2       0.85692    0.71301    0.22420   1.00
C6       0.77957    0.69435    0.24562   1.00
C6       0.77157    0.61375    0.21845   1.00
H2       0.66726    0.71304    0.28060   1.00
H2       0.65573    0.76353    0.29888   1.00
H2       0.69016    0.71150    0.30591   1.00
H2       0.81168    0.80469    0.31847   1.00
H2       0.83716    0.88773    0.31009   1.00
H2       0.75643    0.83733    0.32106   1.00
H2       0.92403    0.98070    0.23795   1.00
H2       0.83842    0.95587    0.23410   1.00
H2       0.88391    1.01099    0.25448   1.00
H2       0.91099    0.88523    0.28447   1.00
H2       0.96464    0.95052    0.26796   1.00
H2       0.91645    0.96624    0.28594   1.00
H2       0.81530    0.98662    0.29439   1.00
H2       0.73790    0.98758    0.29602   1.00
H2       0.74444    0.92307    0.30803   1.00
H2       0.77983    1.00863    0.25844   1.00
H2       0.72731    0.93937    0.24293   1.00
H2       0.69072    0.96782    0.26099   1.00
H2       0.62967    0.70580    0.20618   1.00
H2       0.60288    0.62322    0.19725   1.00
H2       0.64868    0.65073    0.22004   1.00
H2       0.65464    0.68071    0.16434   1.00
H2       0.69388    0.76434    0.17366   1.00
H2       0.74246    0.73395    0.16120   1.00
H2       0.96646    0.84948    0.18413   1.00
H2       0.92905    0.86588    0.20511   1.00
H2       0.95066    0.80095    0.20650   1.00
H2       0.81918    0.68057    0.16887   1.00
H2       0.90383    0.74294    0.16361   1.00
H2       0.88559    0.69201    0.18552   1.00
H2       0.72510    0.67612    0.24679   1.00
H2       0.79192    0.66438    0.25597   1.00
H2       0.80669    0.74662    0.25103   1.00
H2       0.79070    0.59015    0.22909   1.00
H2       0.71595    0.58586    0.21945   1.00
H2       0.78597    0.60621    0.20331   1.00
C4       0.15930    0.79324    0.21398   1.00
C4       0.12914    0.81519    0.19887   1.00
C3       0.15128    0.72693    0.21448   1.00
C3       0.08302    0.77128    0.18389   1.00
C3       0.19896    0.83942    0.22972   1.00
C3       0.14573    0.88485    0.19853   1.00
C2       0.21914    0.75168    0.24562   1.00
C2       0.06911    0.86313    0.16912   1.00
C3       0.18002    0.70655    0.22992   1.00
C3       0.05431    0.79469    0.16930   1.00
C3       0.22860    0.81829    0.24494   1.00
C3       0.11399    0.90673    0.18425   1.00
H1       0.12451    0.69157    0.20361   1.00
H1       0.06859    0.72090    0.18321   1.00
C5       0.20899    0.90649    0.23010   1.00
C5       0.19338    0.93220    0.21253   1.00
H1       0.17208    0.65779    0.22958   1.00
H1       0.02173    0.76076    0.15873   1.00
H1       0.25848    0.85257    0.25582   1.00
H1       0.12304    0.95567    0.18502   1.00
O3       0.23733    0.94684    0.24698   1.00
O3       0.22025    1.00159    0.20998   1.00
Si1      0.18794    0.94828    0.26479   1.00
Si1      0.28631    1.04309    0.19522   1.00
C6       0.25275    0.99663    0.28254   1.00
C6       0.15034    0.99470    0.25540   1.00
C6       0.12998    0.86663    0.27442   1.00
C6       0.31857    0.99649    0.18245   1.00
C6       0.25791    1.08088    0.17736   1.00
C6       0.35103    1.10862    0.20983   1.00
C6       0.30646    0.97328    0.28617   1.00
H2       0.28075    1.04608    0.27501   1.00
C6       0.23500    1.01205    0.30422   1.00
H2       0.18732    1.02715    0.24400   1.00
C6       0.08055    0.95497    0.24402   1.00
C6       0.14213    1.04446    0.27007   1.00
H2       0.16293    0.84491    0.27701   1.00
C6       0.09549    0.86331    0.29532   1.00
C6       0.06956    0.81435    0.26071   1.00
C6       0.34092    0.95334    0.19550   1.00
C6       0.27891    0.95111    0.16378   1.00
H2       0.36559    1.03697    0.17578   1.00
H2       0.22067    1.03793    0.16835   1.00
C6       0.21836    1.11559    0.18605   1.00
C6       0.31169    1.13269    0.16208   1.00
H2       0.33770    1.14877    0.20986   1.00
C6       0.35392    1.09224    0.23265   1.00
C6       0.42610    1.14262    0.20181   1.00
H2       0.33042    0.97141    0.27199   1.00
H2       0.28290    0.92271    0.29312   1.00
H2       0.34754    1.00880    0.29613   1.00
H2       0.27500    1.06216    0.30937   1.00
H2       0.18708    1.01214    0.30463   1.00
H2       0.23179    0.97531    0.31553   1.00
H2       0.07022    0.99003    0.23537   1.00
H2       0.08008    0.91859    0.23314   1.00
H2       0.03848    0.92781    0.25465   1.00
H2       0.19090    1.08173    0.27670   1.00
H2       0.12310    1.07387    0.26203   1.00
H2       0.10615    1.01657    0.28225   1.00
H2       0.07072    0.89410    0.29510   1.00
H2       0.05699    0.81112    0.29938   1.00
H2       0.13237    0.88068    0.30761   1.00
H2       0.02474    0.82029    0.26197   1.00
H2       0.08240    0.81827    0.24475   1.00
H2       0.05394    0.76216    0.26534   1.00
H2       0.29775    0.90368    0.19938   1.00
H2       0.37708    0.94400    0.18709   1.00
H2       0.36606    0.97907    0.20950   1.00
H2       0.30980    0.93356    0.15587   1.00
H2       0.23168    0.90581    0.16819   1.00
H2       0.26686    0.97904    0.15262   1.00
H2       0.19300    1.12705    0.17381   1.00
H2       0.17856    1.08204    0.19667   1.00
H2       0.25216    1.16325    0.19387   1.00
H2       0.34057    1.11188    0.15477   1.00
H2       0.28637    1.14493    0.15001   1.00
H2       0.34747    1.18043    0.16957   1.00
H2       0.36443    1.05059    0.23468   1.00
H2       0.39272    1.13668    0.24086   1.00
H2       0.30536    1.07748    0.23984   1.00
H2       0.45942    1.18882    0.21042   1.00
H2       0.44663    1.10820    0.20320   1.00
H2       0.42975    1.15781    0.18597   1.00
C4       1.02554    0.53331    0.61732   1.00
C4       0.97500    0.51119    0.63292   1.00
C3       1.02834    0.48886    0.60265   1.00
C3       0.92613    0.44169    0.63654   1.00
C3       1.07703    0.60353    0.61637   1.00
C3       0.97253    0.56083    0.64568   1.00
C2       1.13137    0.58142    0.58687   1.00
C2       0.87541    0.47045    0.66507   1.00
C3       1.07999    0.51212    0.58792   1.00
C3       0.87729    0.42189    0.65205   1.00
C3       1.12795    0.62622    0.60115   1.00
C3       0.92479    0.53961    0.66176   1.00
H1       0.99280    0.43832    0.60220   1.00
H1       0.92484    0.40338    0.62811   1.00
C5       1.07715    0.65067    0.63058   1.00
C5       1.01801    0.63130    0.64246   1.00
H1       1.07970    0.47753    0.57780   1.00
H1       0.84284    0.37094    0.65385   1.00
H1       1.16344    0.67705    0.60031   1.00
H1       0.92652    0.57544    0.67156   1.00
O3       1.13277    0.71550    0.63177   1.00
O3       1.00795    0.68019    0.65183   1.00
Si1      1.19349    0.73194    0.64803   1.00
Si1      0.95652    0.70214    0.64132   1.00
C6       1.25126    0.81517    0.63948   1.00
C6       1.16194    0.73327    0.67238   1.00
C6       1.22809    0.67764    0.64550   1.00
C6       0.91371    0.65997    0.61882   1.00
C6       0.89648    0.68596    0.66049   1.00
C6       1.00347    0.79090    0.63730   1.00
C6       1.26281    0.82374    0.61597   1.00
H2       1.22471    0.84278    0.64333   1.00
C6       1.32419    0.85758    0.64910   1.00
H2       1.12248    0.74599    0.66892   1.00
C6       1.12556    0.66522    0.68474   1.00
C6       1.21067    0.78856    0.68789   1.00
H2       1.23653    0.67877    0.62914   1.00
C6       1.29901    0.70123    0.65567   1.00
C6       1.18389    0.60040    0.65157   1.00
C6       0.95776    0.66228    0.60025   1.00
C6       0.85236    0.58511    0.62000   1.00
H2       0.88985    0.68942    0.61416   1.00
H2       0.86749    0.63044    0.66145   1.00
C6       0.92589    0.71096    0.68229   1.00
C6       0.84340    0.70973    0.65666   1.00
H2       1.00323    0.81256    0.65207   1.00
C6       1.08036    0.82145    0.63193   1.00
C6       0.97467    0.82279    0.62187   1.00
H2       1.21476    0.80525    0.60782   1.00
H2       1.28732    0.79579    0.61039   1.00
H2       1.29501    0.87736    0.61183   1.00
H2       1.34005    0.91180    0.64914   1.00
H2       1.32645    0.84299    0.66466   1.00
H2       1.36280    0.85278    0.64050   1.00
H2       1.09615    0.66928    0.69728   1.00
H2       1.08955    0.62246    0.67550   1.00
H2       1.16245    0.65293    0.69123   1.00
H2       1.23150    0.83990    0.68173   1.00
H2       1.18356    0.78726    0.70177   1.00
H2       1.25268    0.78048    0.69220   1.00
H2       1.29830    0.71276    0.67172   1.00
H2       1.31413    0.66238    0.65453   1.00
H2       1.33938    0.74590    0.64815   1.00
H2       1.18885    0.59207    0.66764   1.00
H2       1.12998    0.57896    0.64854   1.00
H2       1.20051    0.56989    0.64302   1.00
H2       0.97231    0.62323    0.60129   1.00
H2       0.92897    0.65305    0.58616   1.00
H2       1.00399    0.71160    0.59870   1.00
H2       0.82547    0.56978    0.60547   1.00
H2       0.86868    0.54849    0.62348   1.00
H2       0.81465    0.57959    0.63125   1.00
H2       0.88507    0.68866    0.69358   1.00
H2       0.96279    0.69524    0.68638   1.00
H2       0.95086    0.76631    0.68368   1.00
H2       0.81859    0.69269    0.64193   1.00
H2       0.80311    0.68824    0.66813   1.00
H2       0.86720    0.76518    0.65743   1.00
H2       1.08758    0.80152    0.61767   1.00
H2       1.10659    0.87701    0.63087   1.00
H2       1.10562    0.80900    0.64378   1.00
H2       1.00231    0.87843    0.62303   1.00
H2       0.97946    0.80963    0.60624   1.00
H2       0.92113    0.80586    0.62475   1.00
C4       0.50757    -0.02559   0.61734   1.00
C4       0.53602    0.02493    0.63294   1.00
C3       0.45854    -0.02979   0.60311   1.00
C3       0.51379    0.07230    0.63703   1.00
C3       0.52816    -0.07562   0.61593   1.00
C3       0.58985    0.02896    0.64521   1.00
C2       0.44998    -0.13135   0.58687   1.00
C2       0.59509    0.12457    0.66507   1.00
C3       0.43022    -0.08141   0.58837   1.00
C3       0.54292    0.12118    0.65253   1.00
C3       0.49993    -0.12653   0.60071   1.00
C3       0.61650    0.07667    0.66130   1.00
H1       0.44214    0.00468    0.60300   1.00
H1       0.47550    0.07242    0.62896   1.00
C5       0.57702    -0.07431   0.62968   1.00
C5       0.61643    -0.01494   0.64151   1.00
H1       0.39459    -0.08217   0.57858   1.00
H1       0.52520    0.15452    0.65468   1.00
H1       0.51659    -0.16093   0.59952   1.00
H1       0.65194    0.07601    0.67077   1.00
O3       0.58825    -0.12872   0.63048   1.00
O3       0.67669    -0.00320   0.65036   1.00
Si1      0.54649    -0.18997   0.64682   1.00
Si1      0.74874    0.04981    0.63945   1.00
C6       0.57353    -0.24591   0.63771   1.00
C6       0.58076    -0.15803   0.67101   1.00
C6       0.45713    -0.22686   0.64494   1.00
C6       0.74625    0.09207    0.61719   1.00
C6       0.79284    0.11016    0.65853   1.00
C6       0.79237    0.00500    0.63477   1.00
C6       0.56903    -0.25723   0.61417   1.00
H2       0.62797    -0.21807   0.64119   1.00
C6       0.54562    -0.31868   0.64721   1.00
H2       0.63221    -0.11752   0.66728   1.00
C6       0.54841    -0.12335   0.68387   1.00
C6       0.59019    -0.20584   0.68619   1.00
H2       0.44871    -0.23528   0.62862   1.00
C6       0.41214    -0.29819   0.65516   1.00
C6       0.42264    -0.18448   0.65157   1.00
C6       0.70383    0.04751    0.59878   1.00
C6       0.73067    0.15196    0.61883   1.00
H2       0.79926    0.11728    0.61216   1.00
H2       0.76505    0.13781    0.65990   1.00
C6       0.79099    0.08095    0.68020   1.00
C6       0.86887    0.16486    0.65425   1.00
H2       0.81575    0.00585    0.64933   1.00
C6       0.74736    -0.07207   0.62942   1.00
C6       0.85187    0.03538    0.61892   1.00
H2       0.59688    -0.20896   0.60600   1.00
H2       0.51612    -0.28299   0.60896   1.00
H2       0.59149    -0.28818   0.60965   1.00
H2       0.58508    -0.33304   0.64680   1.00
H2       0.52979    -0.32155   0.66291   1.00
H2       0.50210    -0.35800   0.63881   1.00
H2       0.58242    -0.09343   0.69625   1.00
H2       0.53968    -0.08809   0.67490   1.00
H2       0.50015    -0.16126   0.69063   1.00
H2       0.62136    -0.22530   0.67963   1.00
H2       0.61661    -0.17843   0.69997   1.00
H2       0.54102    -0.24880   0.69075   1.00
H2       0.42580    -0.29719   0.67110   1.00
H2       0.35773    -0.31480   0.65446   1.00
H2       0.41721    -0.33771   0.64738   1.00
H2       0.41056    -0.18989   0.66773   1.00
H2       0.45365    -0.13040   0.64853   1.00
H2       0.37466    -0.20229   0.64338   1.00
H2       0.64996    0.03147    0.60025   1.00
H2       0.72168    0.07654    0.58466   1.00
H2       0.70833    0.00215    0.59694   1.00
H2       0.74041    0.17887    0.60435   1.00
H2       0.67772    0.13419    0.62273   1.00
H2       0.76302    0.19002    0.62999   1.00
H2       0.80938    0.12163    0.69153   1.00
H2       0.73907    0.04294    0.68458   1.00
H2       0.82275    0.05736    0.68116   1.00
H2       0.87482    0.18960    0.63959   1.00
H2       0.88756    0.20502    0.66577   1.00
H2       0.90182    0.14246    0.65460   1.00
H2       0.71892    -0.07996   0.61538   1.00
H2       0.77790    -0.09692   0.62793   1.00
H2       0.71081    -0.09820   0.64149   1.00
H2       0.88128    0.00910    0.61967   1.00
H2       0.83258    0.03019    0.60345   1.00
H2       0.88755    0.08920    0.62176   1.00
C4       0.46682    0.49242    0.61734   1.00
C4       0.48890    0.46397    0.63294   1.00
C3       0.51164    0.54138    0.60309   1.00
C3       0.55850    0.48614    0.63701   1.00
C3       0.39621    0.47191    0.61595   1.00
C3       0.43910    0.41022    0.64523   1.00
C2       0.41866    0.55002    0.58687   1.00
C2       0.52947    0.40491    0.66507   1.00
C3       0.48834    0.56970    0.58835   1.00
C3       0.57824    0.45701    0.65250   1.00
C3       0.37354    0.50014    0.60072   1.00
C3       0.46017    0.38357    0.66132   1.00
H1       0.56251    0.55772    0.60297   1.00
H1       0.59691    0.52437    0.62892   1.00
C5       0.34869    0.42313    0.62972   1.00
C5       0.36862    0.38370    0.64155   1.00
H1       0.52320    0.60527    0.57855   1.00
H1       0.62930    0.47467    0.65464   1.00
H1       0.32249    0.48354    0.59956   1.00
H1       0.42408    0.34819    0.67080   1.00
O3       0.28308    0.41199    0.63054   1.00
O3       0.32008    0.32350    0.65043   1.00
Si1      0.26372    0.45386    0.64687   1.00
Si1      0.30092    0.25139    0.63953   1.00
C6       0.18073    0.42689    0.63779   1.00
C6       0.26143    0.41965    0.67107   1.00
C6       0.31628    0.54320    0.64497   1.00
C6       0.34555    0.25374    0.61726   1.00
C6       0.31716    0.20730    0.65861   1.00
C6       0.21247    0.20784    0.63488   1.00
C6       0.17384    0.43132    0.61425   1.00
H2       0.15408    0.37246    0.64128   1.00
C6       0.13597    0.45491    0.64729   1.00
H2       0.25042    0.36817    0.66735   1.00
C6       0.32851    0.45197    0.68391   1.00
C6       0.20427    0.41034    0.68626   1.00
H2       0.31622    0.55157    0.62864   1.00
C6       0.29005    0.58829    0.65519   1.00
C6       0.39315    0.57763    0.65157   1.00
C6       0.34341    0.29613    0.59884   1.00
C6       0.42101    0.26924    0.61888   1.00
H2       0.31769    0.20072    0.61224   1.00
H2       0.37260    0.23503    0.65996   1.00
C6       0.28990    0.20926    0.68029   1.00
C6       0.29573    0.13123    0.65436   1.00
H2       0.18997    0.18452    0.64945   1.00
C6       0.18046    0.25290    0.62953   1.00
C6       0.18322    0.14828    0.61905   1.00
H2       0.19417    0.40339    0.60608   1.00
H2       0.20102    0.48420    0.60902   1.00
H2       0.12041    0.40890    0.60974   1.00
H2       0.08213    0.41549    0.64690   1.00
H2       0.14900    0.47078    0.66299   1.00
H2       0.14019    0.49842    0.63889   1.00
H2       0.32442    0.41798    0.69630   1.00
H2       0.37244    0.46061    0.67493   1.00
H2       0.33894    0.50027    0.69066   1.00
H2       0.15361    0.37919    0.67972   1.00
H2       0.20528    0.38395    0.70005   1.00
H2       0.21057    0.45955    0.69081   1.00
H2       0.27743    0.57469    0.67112   1.00
H2       0.32789    0.64268    0.65447   1.00
H2       0.24546    0.58325    0.64742   1.00
H2       0.39990    0.58976    0.66773   1.00
H2       0.41616    0.54655    0.64854   1.00
H2       0.42334    0.62557    0.64336   1.00
H2       0.38129    0.34999    0.60029   1.00
H2       0.35451    0.27821    0.58473   1.00
H2       0.29357    0.29169    0.59701   1.00
H2       0.43809    0.25941    0.60440   1.00
H2       0.45625    0.32219    0.62276   1.00
H2       0.42670    0.23689    0.63004   1.00
H2       0.31219    0.19086    0.69162   1.00
H2       0.30389    0.26121    0.68466   1.00
H2       0.23456    0.17756    0.68127   1.00
H2       0.31444    0.12520    0.63969   1.00
H2       0.31720    0.11254    0.66587   1.00
H2       0.24037    0.09834    0.65472   1.00
H2       0.20099    0.28129    0.61548   1.00
H2       0.12507    0.22242    0.62806   1.00
H2       0.19097    0.28950    0.64159   1.00
H2       0.12753    0.11893    0.61982   1.00
H2       0.19728    0.16751    0.60357   1.00
H2       0.20130    0.11256    0.62188   1.00
C4       0.46464    -0.03177   0.11919   1.00
C4       0.48733    0.02048    0.13427   1.00
C3       0.49740    -0.07010   0.11521   1.00
C3       0.54843    0.04386    0.14557   1.00
C3       0.40660    -0.04625   0.10711   1.00
C3       0.44704    0.05140    0.13848   1.00
C2       0.41763    -0.13427   0.08775   1.00
C2       0.53050    0.12749    0.16419   1.00
C3       0.47482    -0.11966   0.09985   1.00
C3       0.56913    0.09543    0.16025   1.00
C3       0.38386    -0.09735   0.09195   1.00
C3       0.47029    0.10529    0.15271   1.00
H1       0.53848    -0.06328   0.12340   1.00
H1       0.57992    0.02441    0.14337   1.00
C5       0.37149    -0.00981   0.11032   1.00
C5       0.38413    0.02888    0.12835   1.00
H1       0.50084    -0.14542   0.09756   1.00
H1       0.61350    0.10987    0.16808   1.00
H1       0.34104    -0.10849   0.08378   1.00
H1       0.44311    0.12984    0.15461   1.00
O3       0.32303    -0.01570   0.09656   1.00
O3       0.33828    0.04817    0.13495   1.00
Si1      0.34465    0.03920    0.07805   1.00
Si1      0.28503    0.00451    0.15304   1.00
C6       0.26663    -0.00273   0.06473   1.00
C6       0.35843    0.11664    0.08858   1.00
C6       0.41246    0.04562    0.06317   1.00
C6       0.29062    -0.06383   0.16397   1.00
C6       0.30184    0.06647    0.17164   1.00
C6       0.20216    -0.02458   0.14365   1.00
C6       0.23603    -0.08125   0.06136   1.00
H2       0.23175    0.00172    0.07523   1.00
C6       0.25752    0.02549    0.04392   1.00
H2       0.32699    0.09923    0.10223   1.00
C6       0.43190    0.16951    0.09599   1.00
C6       0.33329    0.15952    0.07654   1.00
H2       0.39649    -0.00788   0.06037   1.00
C6       0.42342    0.07967    0.04177   1.00
C6       0.48619    0.07916    0.07245   1.00
C6       0.28365    -0.12203   0.14966   1.00
C6       0.35038    -0.04836   0.17895   1.00
H2       0.24548    -0.08763   0.17365   1.00
H2       0.35212    0.07956    0.17738   1.00
C6       0.30916    0.13522    0.16391   1.00
C6       0.25330    0.04428    0.19044   1.00
H2       0.19487    0.01934    0.14528   1.00
C6       0.19091    -0.04282   0.12064   1.00
C6       0.14094    -0.08485   0.15501   1.00
H2       0.22991    -0.10794   0.07569   1.00
H2       0.26867    -0.09149   0.05149   1.00
H2       0.18546    -0.10416   0.05442   1.00
H2       0.20504    0.01493    0.04237   1.00
H2       0.29087    0.08022    0.04234   1.00
H2       0.26707    0.00130    0.03098   1.00
H2       0.43070    0.20760    0.10591   1.00
H2       0.45493    0.14558    0.10478   1.00
H2       0.46526    0.19662    0.08323   1.00
H2       0.27894    0.12954    0.07314   1.00
H2       0.34012    0.20341    0.08538   1.00
H2       0.36158    0.17892    0.06239   1.00
H2       0.42822    0.13000    0.04289   1.00
H2       0.46924    0.08574    0.03426   1.00
H2       0.38170    0.04826    0.03155   1.00
H2       0.51434    0.13440    0.07041   1.00
H2       0.48672    0.06956    0.08852   1.00
H2       0.51554    0.05903    0.06495   1.00
H2       0.33184    -0.10881   0.14234   1.00
H2       0.26801    -0.16880   0.15829   1.00
H2       0.24550    -0.13433   0.13790   1.00
H2       0.34148    -0.09505   0.18656   1.00
H2       0.39924    -0.02746   0.17124   1.00
H2       0.35510    -0.01305   0.19093   1.00
H2       0.33081    0.17409    0.17579   1.00
H2       0.34358    0.15516    0.15090   1.00
H2       0.26018    0.12960    0.15948   1.00
H2       0.24676    -0.00253   0.19725   1.00
H2       0.27448    0.08364    0.20220   1.00
H2       0.20313    0.03652    0.18639   1.00
H2       0.19937    -0.08488   0.11686   1.00
H2       0.13948    -0.05650   0.11580   1.00
H2       0.22611    0.00105    0.11170   1.00
H2       0.09235    -0.09106   0.14973   1.00
H2       0.13980    -0.13309   0.15245   1.00
H2       0.14319    -0.07591   0.17131   1.00
C4       1.02903    0.48747    0.11817   1.00
C4       0.97834    0.45928    0.13373   1.00
C3       1.07999    0.46918    0.11532   1.00
C3       0.97730    0.41480    0.14909   1.00
C3       1.02997    0.53757    0.10483   1.00
C3       0.92533    0.47596    0.13410   1.00
C2       1.13185    0.54930    0.08699   1.00
C2       0.87493    0.40563    0.16495   1.00
C3       1.13022    0.49949    0.10024   1.00
C3       0.92667    0.38818    0.16416   1.00
C3       1.08031    0.56661    0.08947   1.00
C3       0.87650    0.45093    0.14992   1.00
H1       1.08195    0.43313    0.12407   1.00
H1       1.01352    0.40075    0.14986   1.00
C5       0.98045    0.55813    0.10686   1.00
C5       0.92159    0.51797    0.11881   1.00
H1       1.16608    0.48459    0.09899   1.00
H1       0.92814    0.35578    0.17478   1.00
H1       1.07920    0.60109    0.07965   1.00
H1       0.84150    0.46682    0.15071   1.00
O3       0.98819    0.61410    0.09631   1.00
O3       0.86400    0.52374    0.11652   1.00
Si1      1.02630    0.68918    0.10702   1.00
Si1      0.80059    0.46667    0.10307   1.00
C6       1.03043    0.73674    0.08531   1.00
C6       0.96986    0.69018    0.12526   1.00
C6       1.10857    0.71319    0.11618   1.00
C6       0.80754    0.39830    0.09278   1.00
C6       0.73183    0.43468    0.12010   1.00
C6       0.78474    0.51037    0.08364   1.00
C6       1.05682    0.71953    0.06544   1.00
H2       0.97671    0.71957    0.08250   1.00
C6       1.06707    0.81667    0.08603   1.00
H2       0.92041    0.65160    0.11935   1.00
C6       0.97343    0.66745    0.14742   1.00
C6       0.96510    0.75644    0.12765   1.00
H2       1.13115    0.70123    0.10329   1.00
C6       1.15737    0.79062    0.12092   1.00
C6       1.11649    0.67526    0.13504   1.00
C6       0.86948    0.41568    0.07859   1.00
C6       0.79944    0.33930    0.10701   1.00
H2       0.76275    0.37348    0.08298   1.00
H2       0.74352    0.40582    0.13104   1.00
C6       0.72461    0.48897    0.13292   1.00
C6       0.65934    0.38426    0.11150   1.00
H2       0.75442    0.52943    0.09103   1.00
C6       0.84816    0.57504    0.07497   1.00
C6       0.74219    0.46839    0.06484   1.00
H2       1.02683    0.66536    0.06172   1.00
H2       1.11012    0.73277    0.06693   1.00
H2       1.05288    0.74731    0.05243   1.00
H2       1.04138    0.83487    0.07588   1.00
H2       1.06730    0.83629    0.10109   1.00
H2       1.11999    0.84061    0.08093   1.00
H2       0.92754    0.65643    0.15591   1.00
H2       0.97649    0.62101    0.14776   1.00
H2       1.01712    0.70739    0.15558   1.00
H2       0.95249    0.77145    0.11329   1.00
H2       0.92473    0.74869    0.13828   1.00
H2       1.01289    0.79865    0.13338   1.00
H2       1.13338    0.81005    0.13126   1.00
H2       1.20526    0.79999    0.12783   1.00
H2       1.17225    0.82102    0.10715   1.00
H2       1.11426    0.69835    0.14934   1.00
H2       1.07802    0.62178    0.13580   1.00
H2       1.16595    0.67768    0.13454   1.00
H2       0.91500    0.42712    0.08723   1.00
H2       0.85817    0.37233    0.06879   1.00
H2       0.88176    0.45882    0.06871   1.00
H2       0.79536    0.29670    0.09808   1.00
H2       0.84279    0.35544    0.11713   1.00
H2       0.75328    0.31861    0.11620   1.00
H2       0.68829    0.46430    0.14531   1.00
H2       0.77311    0.52578    0.13985   1.00
H2       0.70666    0.51703    0.12378   1.00
H2       0.65902    0.34315    0.10278   1.00
H2       0.62280    0.36036    0.12390   1.00
H2       0.64059    0.41055    0.10184   1.00
H2       0.88419    0.56297    0.06777   1.00
H2       0.83356    0.60130    0.06389   1.00
H2       0.87473    0.61096    0.08714   1.00
H2       0.72708    0.49859    0.05552   1.00
H2       0.77147    0.45301    0.05522   1.00
H2       0.69536    0.42266    0.06937   1.00
C4       0.51273    0.54118    0.11800   1.00
C4       0.54101    0.51885    0.13358   1.00
C3       0.53745    0.61084    0.11327   1.00
C3       0.59261    0.56387    0.14718   1.00
C3       0.45585    0.49154    0.10662   1.00
C3       0.51693    0.44768    0.13582   1.00
C2       0.45058    0.58227    0.08695   1.00
C2       0.59449    0.46960    0.16499   1.00
C3       0.50703    0.63088    0.09826   1.00
C3       0.61909    0.54001    0.16233   1.00
C3       0.42669    0.51276    0.09127   1.00
C3       0.54221    0.42451    0.15174   1.00
H1       0.57843    0.64906    0.12055   1.00
H1       0.61217    0.61527    0.14656   1.00
C5       0.42867    0.42102    0.11058   1.00
C5       0.46736    0.39995    0.12231   1.00
H1       0.52680    0.68202    0.09561   1.00
H1       0.65677    0.57496    0.17162   1.00
H1       0.38713    0.47654    0.08285   1.00
H1       0.52135    0.37320    0.15395   1.00
O3       0.36736    0.37405    0.10204   1.00
O3       0.45334    0.33314    0.12160   1.00
Si1      0.29657    0.34847    0.11464   1.00
Si1      0.50113    0.31452    0.10756   1.00
C6       0.24010    0.30179    0.09478   1.00
C6       0.29428    0.29404    0.13412   1.00
C6       0.28455    0.41607    0.12272   1.00
C6       0.57064    0.38156    0.09457   1.00
C6       0.53162    0.27714    0.12489   1.00
C6       0.44694    0.25109    0.09029   1.00
C6       0.25514    0.33895    0.07375   1.00
H2       0.25053    0.26007    0.09259   1.00
C6       0.16081    0.26689    0.09766   1.00
H2       0.32678    0.27555    0.12795   1.00
C6       0.32574    0.32607    0.15520   1.00
C6       0.22473    0.22865    0.13913   1.00
H2       0.29584    0.44667    0.10893   1.00
C6       0.21072    0.39763    0.12923   1.00
C6       0.33150    0.46564    0.13984   1.00
C6       0.55559    0.42617    0.07969   1.00
C6       0.63627    0.43215    0.10667   1.00
H2       0.58801    0.35401    0.08495   1.00
H2       0.56695    0.31971    0.13439   1.00
C6       0.47769    0.22365    0.13985   1.00
C6       0.57283    0.24441    0.11613   1.00
H2       0.42545    0.20395    0.09907   1.00
C6       0.38407    0.25542    0.08264   1.00
C6       0.47975    0.23877    0.07100   1.00
H2       0.30719    0.35609    0.06870   1.00
H2       0.24837    0.38343    0.07448   1.00
H2       0.22125    0.30488    0.06197   1.00
H2       0.13519    0.21966    0.08886   1.00
H2       0.14502    0.25399    0.11336   1.00
H2       0.14063    0.29892    0.09226   1.00
H2       0.33431    0.29065    0.16430   1.00
H2       0.37510    0.37226    0.15371   1.00
H2       0.29181    0.33797    0.16380   1.00
H2       0.20276    0.19678    0.12572   1.00
H2       0.23122    0.19673    0.15034   1.00
H2       0.18814    0.24197    0.14530   1.00
H2       0.19058    0.35781    0.14080   1.00
H2       0.20908    0.44175    0.13532   1.00
H2       0.17619    0.38073    0.11634   1.00
H2       0.31150    0.44668    0.15498   1.00
H2       0.38319    0.47468    0.13946   1.00
H2       0.33500    0.51539    0.13827   1.00
H2       0.55202    0.46644    0.08763   1.00
H2       0.59664    0.45102    0.06856   1.00
H2       0.50857    0.39605    0.07122   1.00
H2       0.67772    0.46423    0.09628   1.00
H2       0.62796    0.46630    0.11632   1.00
H2       0.65519    0.40560    0.11610   1.00
H2       0.50306    0.21220    0.15209   1.00
H2       0.44726    0.24310    0.14700   1.00
H2       0.44299    0.17581    0.13226   1.00
H2       0.61325    0.27914    0.10591   1.00
H2       0.59737    0.23202    0.12840   1.00
H2       0.53972    0.19720    0.10797   1.00
H2       0.39899    0.30219    0.07418   1.00
H2       0.35106    0.21215    0.07297   1.00
H2       0.35350    0.25429    0.09547   1.00
H2       0.44309    0.19189    0.06324   1.00
H2       0.49653    0.28068    0.06017   1.00
H2       0.52345    0.23308    0.07487   1.00
C4       0.63511    0.79836    0.71421   1.00
C4       0.68737    0.82096    0.69913   1.00
C3       0.60023    0.83393    0.71918   1.00
C3       0.71424    0.88437    0.68885   1.00
C3       0.61701    0.73739    0.72524   1.00
C3       0.71460    0.77818    0.69385   1.00
C2       0.53241    0.75113    0.74559   1.00
C2       0.79413    0.86368    0.66915   1.00
C3       0.55057    0.81122    0.73451   1.00
C3       0.76570    0.90490    0.67414   1.00
C3       0.56587    0.71465    0.74040   1.00
C3       0.76846    0.80109    0.67961   1.00
H1       0.60972    0.87726    0.71176   1.00
H1       0.69752    0.91769    0.69185   1.00
C5       0.64990    0.69939    0.72101   1.00
C5       0.68846    0.71307    0.70291   1.00
H1       0.52741    0.83932    0.73755   1.00
H1       0.78275    0.95103    0.66708   1.00
H1       0.55209    0.66982    0.74780   1.00
H1       0.79037    0.77181    0.67696   1.00
O3       0.64069    0.64742    0.73384   1.00
O3       0.70415    0.66574    0.69525   1.00
Si1      0.69472    0.66276    0.75226   1.00
Si1      0.65885    0.61699    0.67652   1.00
C6       0.64878    0.58280    0.76438   1.00
C6       0.77059    0.67371    0.74131   1.00
C6       0.70513    0.72953    0.76840   1.00
C6       0.59352    0.62921    0.66634   1.00
C6       0.72016    0.63352    0.65773   1.00
C6       0.62506    0.53188    0.68452   1.00
C6       0.57090    0.55587    0.76785   1.00
H2       0.65097    0.54845    0.75317   1.00
C6       0.67496    0.56785    0.78472   1.00
H2       0.75198    0.64491    0.72722   1.00
C6       0.82666    0.74721    0.73490   1.00
C6       0.81003    0.64283    0.75245   1.00
H2       0.65238    0.71613    0.77136   1.00
C6       0.73826    0.73476    0.78968   1.00
C6       0.74261    0.80491    0.76029   1.00
C6       0.53658    0.62334    0.68101   1.00
C6       0.61274    0.69241    0.65243   1.00
H2       0.56774    0.58602    0.65599   1.00
H2       0.73626    0.68547    0.65288   1.00
C6       0.78682    0.63514    0.66497   1.00
C6       0.69591    0.58834    0.63820   1.00
H2       0.66698    0.52176    0.68234   1.00
C6       0.60622    0.51741    0.70743   1.00
C6       0.56306    0.47484    0.67251   1.00
H2       0.54504    0.55388    0.75367   1.00
H2       0.56299    0.58841    0.77845   1.00
H2       0.54527    0.50407    0.77398   1.00
H2       0.66124    0.51422    0.78532   1.00
H2       0.72996    0.59830    0.78647   1.00
H2       0.65198    0.57698    0.79805   1.00
H2       0.86355    0.74522    0.72462   1.00
H2       0.80530    0.77407    0.72680   1.00
H2       0.85478    0.77751    0.74806   1.00
H2       0.77741    0.58823    0.75504   1.00
H2       0.85303    0.64854    0.74336   1.00
H2       0.83035    0.66818    0.76697   1.00
H2       0.78718    0.73657    0.78819   1.00
H2       0.74702    0.78022    0.79803   1.00
H2       0.70495    0.69204    0.79933   1.00
H2       0.79774    0.82989    0.76239   1.00
H2       0.73372    0.80895    0.74434   1.00
H2       0.72498    0.83513    0.76854   1.00
H2       0.55241    0.67079    0.68916   1.00
H2       0.49059    0.61185    0.67251   1.00
H2       0.52193    0.58276    0.69211   1.00
H2       0.56725    0.68769    0.64508   1.00
H2       0.63601    0.73998    0.66091   1.00
H2       0.64738    0.69707    0.64024   1.00
H2       0.82603    0.65698    0.65319   1.00
H2       0.80808    0.66696    0.67845   1.00
H2       0.77803    0.58427    0.66847   1.00
H2       0.65044    0.58591    0.63169   1.00
H2       0.73554    0.60965    0.62652   1.00
H2       0.68498    0.53646    0.64131   1.00
H2       0.56611    0.52823    0.71175   1.00
H2       0.58949    0.46448    0.71136   1.00
H2       0.65072    0.54917    0.71666   1.00
H2       0.55370    0.42426    0.67687   1.00
H2       0.51638    0.47640    0.67548   1.00
H2       0.57217    0.47946    0.65620   1.00
C4       0.16315    0.36205    0.71501   1.00
C4       0.13284    0.31010    0.69986   1.00
C3       0.20917    0.36393    0.72997   1.00
C3       0.14060    0.25164    0.69930   1.00
C3       0.14606    0.41476    0.71557   1.00
C3       0.09253    0.31642    0.68430   1.00
C2       0.21963    0.46695    0.74575   1.00
C2       0.06862    0.20651    0.66899   1.00
C3       0.23635    0.41468    0.74499   1.00
C3       0.10992    0.20158    0.68418   1.00
C3       0.17503    0.46623    0.73061   1.00
C3       0.05968    0.26396    0.66972   1.00
H1       0.22447    0.32861    0.73035   1.00
H1       0.16841    0.24350    0.70992   1.00
C5       0.10039    0.41588    0.70104   1.00
C5       0.08467    0.37465    0.68344   1.00
H1       0.26899    0.41315    0.75551   1.00
H1       0.11779    0.16070    0.68443   1.00
H1       0.16378    0.50477    0.73048   1.00
H1       0.02750    0.26712    0.65946   1.00
O3       0.07528    0.45966    0.70362   1.00
O3       0.05767    0.38838    0.66648   1.00
Si1      0.00252    0.43322    0.71518   1.00
Si1      0.10815    0.42920    0.64755   1.00
C6       0.00665    0.51303    0.71670   1.00
C6       -0.06245   0.37777    0.69847   1.00
C6       -0.00038   0.39945    0.73954   1.00
C6       0.19473    0.45135    0.64932   1.00
C6       0.06988    0.37332    0.62705   1.00
C6       0.10181    0.50256    0.64315   1.00
C6       0.07586    0.57389    0.72447   1.00
H2       0.00330    0.52431    0.70077   1.00
C6       -0.05032   0.52080    0.72788   1.00
H2       -0.03800   0.39538    0.68371   1.00
C6       -0.08646   0.29993    0.69934   1.00
C6       -0.12963   0.38135    0.69736   1.00
H2       0.04773    0.43827    0.74619   1.00
C6       -0.05788   0.39230    0.75428   1.00
C6       -0.00173   0.32963    0.74163   1.00
C6       0.23715    0.49590    0.66773   1.00
C6       0.21472    0.39482    0.64661   1.00
H2       0.21698    0.48376    0.63602   1.00
H2       0.07859    0.33106    0.63033   1.00
C6       -0.00934   0.34045    0.62513   1.00
C6       0.10004    0.39994    0.60546   1.00
H2       0.05514    0.48388    0.63426   1.00
C6       0.09058    0.53658    0.66219   1.00
C6       0.15942    0.56187    0.63046   1.00
H2       0.11884    0.57987    0.71538   1.00
H2       0.08535    0.56640    0.74026   1.00
H2       0.07603    0.62217    0.72349   1.00
H2       -0.05747   0.55990    0.72041   1.00
H2       -0.09939   0.47397    0.72798   1.00
H2       -0.03696   0.53702    0.74362   1.00
H2       -0.11536   0.27392    0.68571   1.00
H2       -0.04372   0.29072    0.70002   1.00
H2       -0.11949   0.27558    0.71239   1.00
H2       -0.11908   0.43276    0.69376   1.00
H2       -0.16341   0.34830    0.68537   1.00
H2       -0.15778   0.36510    0.71164   1.00
H2       -0.10811   0.36330    0.74726   1.00
H2       -0.05869   0.36663    0.76843   1.00
H2       -0.04982   0.44187    0.75886   1.00
H2       -0.05351   0.28614    0.74103   1.00
H2       0.02737    0.32159    0.73003   1.00
H2       0.01993    0.32729    0.75624   1.00
H2       0.22977    0.46504    0.68119   1.00
H2       0.29164    0.52227    0.66423   1.00
H2       0.22437    0.53492    0.67159   1.00
H2       0.27005    0.41775    0.64524   1.00
H2       0.19900    0.36001    0.65944   1.00
H2       0.19301    0.36492    0.63286   1.00
H2       -0.02961   0.29833    0.61425   1.00
H2       -0.03477   0.31922    0.63959   1.00
H2       -0.02396   0.37716    0.61999   1.00
H2       0.15531    0.42208    0.60520   1.00
H2       0.07897    0.35796    0.59452   1.00
H2       0.08774    0.43815    0.60008   1.00
H2       0.13314    0.55528    0.67279   1.00
H2       0.08319    0.57915    0.65805   1.00
H2       0.04491    0.49975    0.67016   1.00
H2       0.14455    0.59928    0.62617   1.00
H2       0.20692    0.58867    0.63906   1.00
H2       0.16978    0.54331    0.61641   1.00
C4       0.19898    0.83674    0.71495   1.00
C4       0.17728    0.86703    0.69981   1.00
C3       0.15426    0.78828    0.72932   1.00
C3       0.11010    0.85663    0.69870   1.00
C3       0.26942    0.85642    0.71613   1.00
C3       0.22488    0.91010    0.68483   1.00
C2       0.24740    0.78040    0.74573   1.00
C2       0.13779    0.93135    0.66901   1.00
C3       0.17781    0.76114    0.74436   1.00
C3       0.09069    0.88738    0.68362   1.00
C3       0.29195    0.82749    0.73118   1.00
C3       0.20508    0.94290    0.67029   1.00
H1       0.10322    0.77109    0.72923   1.00
H1       0.07341    0.82676    0.70889   1.00
C5       0.31683    0.90462    0.70222   1.00
C5       0.29210    0.92074    0.68452   1.00
H1       0.14317    0.72665    0.75443   1.00
H1       0.04124    0.87754    0.68345   1.00
H1       0.34229    0.84066    0.73148   1.00
H1       0.24090    0.97696    0.66048   1.00
O3       0.38574    0.93188    0.70545   1.00
O3       0.33442    0.95070    0.66803   1.00
Si1      0.42848    1.00375    0.71774   1.00
Si1      0.32895    0.90297    0.64876   1.00
C6       0.50575    1.00284    0.71981   1.00
C6       0.43724    1.06942    0.70146   1.00
C6       0.39407    1.00265    0.74186   1.00
C6       0.26680    0.81539    0.64958   1.00
C6       0.31163    0.94178    0.62835   1.00
C6       0.41053    0.91310    0.64500   1.00
C6       0.49940    0.93403    0.72715   1.00
H2       0.52236    1.00845    0.70403   1.00
C6       0.56804    1.06013    0.73178   1.00
H2       0.43302    1.04680    0.68654   1.00
C6       0.38113    1.09045    0.70205   1.00
C6       0.50664    1.13826    0.70126   1.00
H2       0.38596    0.95453    0.74818   1.00
C6       0.44124    1.05945    0.75729   1.00
C6       0.32388    1.00077    0.74345   1.00
C6       0.26875    0.77208    0.66776   1.00
C6       0.18988    0.79282    0.64618   1.00
H2       0.27967    0.79551    0.63625   1.00
H2       0.25961    0.93071    0.63119   1.00
C6       0.35565    1.02140    0.62721   1.00
C6       0.31180    0.91446    0.60658   1.00
H2       0.43805    0.96086    0.63658   1.00
C6       0.45404    0.92402    0.66444   1.00
C6       0.41625    0.85824    0.63203   1.00
H2       0.46457    0.89139    0.71755   1.00
H2       0.48069    0.92235    0.74274   1.00
H2       0.54864    0.93607    0.72653   1.00
H2       0.61579    1.06992    0.72471   1.00
H2       0.56814    1.10816    0.73217   1.00
H2       0.56976    1.04553    0.74747   1.00
H2       0.38436    1.12026    0.68862   1.00
H2       0.32991    1.04636    0.70211   1.00
H2       0.38706    1.12171    0.71534   1.00
H2       0.54922    1.13011    0.69791   1.00
H2       0.50726    1.17257    0.68946   1.00
H2       0.51590    1.16475    0.71577   1.00
H2       0.46150    1.11020    0.75070   1.00
H2       0.41421    1.05765    0.77125   1.00
H2       0.48345    1.05289    0.76214   1.00
H2       0.33012    1.05178    0.74318   1.00
H2       0.28857    0.97195    0.73141   1.00
H2       0.29867    0.97701    0.75774   1.00
H2       0.24292    0.77684    0.68107   1.00
H2       0.24284    0.71798    0.66375   1.00
H2       0.32062    0.78641    0.67208   1.00
H2       0.15941    0.73750    0.64427   1.00
H2       0.16824    0.80599    0.65894   1.00
H2       0.18213    0.81514    0.63249   1.00
H2       0.33369    1.04141    0.61628   1.00
H2       0.35717    1.04490    0.64183   1.00
H2       0.40799    1.03847    0.62254   1.00
H2       0.28045    0.85904    0.60578   1.00
H2       0.29077    0.93530    0.59561   1.00
H2       0.36343    0.92924    0.60166   1.00
H2       0.43036    0.88026    0.67462   1.00
H2       0.50519    0.93385    0.66071   1.00
H2       0.46014    0.96817    0.67271   1.00
H2       0.46946    0.87550    0.62822   1.00
H2       0.39624    0.81001    0.64021   1.00
H2       0.38880    0.84835    0.61771   1.00
