data_IRMOF10_interpen_symm_ligand11lp_label_h_1.

_audit_creation_method             'generated by an auxiliary program of Tobunporous'

_symmetry_space_group_name_H-M     'P 1'
_symmetry_Int_Tables_number        1
_symmetry_cell_setting             triclinic

_cell_length_a                    22.6523
_cell_length_b                    22.6523
_cell_length_c                    65.9502
_cell_angle_alpha                 90.0000
_cell_angle_beta                  90.0000
_cell_angle_gamma                 120.0000

loop_
_atom_site_label
_atom_site_fract_x
_atom_site_fract_y
_atom_site_fract_z
_atom_site_occupancy
O1       0.00000    -0.00000   0.62500   1.00
Zn1      0.00000    -0.00000   0.59589   1.00
Zn1      0.94848    1.04288    0.63392   1.00
Zn1      0.09439    0.05152    0.63392   1.00
Zn1      -0.04288   0.90561    0.63392   1.00
O2       0.93860    0.02610    0.58587   1.00
O2       0.08750    0.06140    0.58587   1.00
O2       -0.02610   0.91250    0.58587   1.00
O2       0.91305    0.07161    0.61181   1.00
O2       0.00462    0.12022    0.65110   1.00
O2       0.87413    0.98074    0.65071   1.00
O2       0.15856    0.08695    0.61181   1.00
O2       0.10660    0.12587    0.65071   1.00
O2       0.11559    0.99538    0.65110   1.00
O2       -0.07161   0.84144    0.61181   1.00
O2       0.87978    0.88441    0.65110   1.00
O2       0.01926    0.89340    0.65071   1.00
C1       0.91390    0.06020    0.59358   1.00
C1       0.14630    0.08610    0.59358   1.00
C1       -0.06020   0.85370    0.59358   1.00
C1       0.06663    0.14397    0.65673   1.00
C1       0.85603    0.92267    0.65673   1.00
C1       0.07733    0.93337    0.65673   1.00
O1       -0.00000   0.00000    0.87500   1.00
Zn1      -0.00000   0.00000    0.90411   1.00
Zn1      1.04288    0.94848    0.86608   1.00
Zn1      0.05152    0.09439    0.86608   1.00
Zn1      0.90561    -0.04288   0.86608   1.00
O2       0.02610    0.93860    0.91413   1.00
O2       0.06140    0.08750    0.91413   1.00
O2       0.91250    -0.02610   0.91413   1.00
O2       0.07161    0.91305    0.88819   1.00
O2       0.12022    0.00462    0.84890   1.00
O2       0.98074    0.87413    0.84929   1.00
O2       0.08695    0.15856    0.88819   1.00
O2       0.12587    0.10660    0.84929   1.00
O2       0.99538    0.11559    0.84890   1.00
O2       0.84144    -0.07161   0.88819   1.00
O2       0.88441    0.87978    0.84890   1.00
O2       0.89340    0.01926    0.84929   1.00
C1       0.06020    0.91390    0.90642   1.00
C1       0.08610    0.14630    0.90642   1.00
C1       0.85370    -0.06020   0.90642   1.00
C1       0.14397    0.06663    0.84327   1.00
C1       0.92267    0.85603    0.84327   1.00
C1       0.93337    0.07733    0.84327   1.00
O1       0.00000    0.00000    0.37500   1.00
Zn1      0.00000    0.00000    0.40411   1.00
Zn1      0.05152    -0.04288   0.36608   1.00
Zn1      0.90561    0.94848    0.36608   1.00
Zn1      1.04288    0.09439    0.36608   1.00
O2       0.06140    -0.02610   0.41413   1.00
O2       0.91250    0.93860    0.41413   1.00
O2       0.02610    0.08750    0.41413   1.00
O2       0.08695    -0.07161   0.38819   1.00
O2       0.99538    0.87978    0.34890   1.00
O2       0.12587    0.01926    0.34929   1.00
O2       0.84144    0.91305    0.38819   1.00
O2       0.89340    0.87413    0.34929   1.00
O2       0.88441    0.00462    0.34890   1.00
O2       0.07161    0.15856    0.38819   1.00
O2       0.12022    0.11559    0.34890   1.00
O2       0.98074    0.10660    0.34929   1.00
C1       0.08610    -0.06020   0.40642   1.00
C1       0.85370    0.91390    0.40642   1.00
C1       0.06020    0.14630    0.40642   1.00
C1       0.93337    0.85603    0.34327   1.00
C1       0.14397    0.07733    0.34327   1.00
C1       0.92267    0.06663    0.34327   1.00
O1       0.00000    0.00000    0.12500   1.00
Zn1      0.00000    0.00000    0.09589   1.00
Zn1      -0.04288   0.05152    0.13392   1.00
Zn1      0.94848    0.90561    0.13392   1.00
Zn1      0.09439    1.04288    0.13392   1.00
O2       -0.02610   0.06140    0.08587   1.00
O2       0.93860    0.91250    0.08587   1.00
O2       0.08750    0.02610    0.08587   1.00
O2       -0.07161   0.08695    0.11181   1.00
O2       0.87978    0.99538    0.15110   1.00
O2       0.01926    0.12587    0.15071   1.00
O2       0.91305    0.84144    0.11181   1.00
O2       0.87413    0.89340    0.15071   1.00
O2       0.00462    0.88441    0.15110   1.00
O2       0.15856    0.07161    0.11181   1.00
O2       0.11559    0.12022    0.15110   1.00
O2       0.10660    0.98074    0.15071   1.00
C1       -0.06020   0.08610    0.09358   1.00
C1       0.91390    0.85370    0.09358   1.00
C1       0.14630    0.06020    0.09358   1.00
C1       0.85603    0.93337    0.15673   1.00
C1       0.07733    0.14397    0.15673   1.00
C1       0.06663    0.92267    0.15673   1.00
O1       0.66667    0.33333    0.95833   1.00
Zn1      0.66667    0.33333    0.92922   1.00
Zn1      0.61515    0.37621    0.96725   1.00
Zn1      0.76106    0.38485    0.96725   1.00
Zn1      -0.37621   0.23894    0.96725   1.00
O2       0.60527    0.35943    0.91920   1.00
O2       0.75417    0.39473    0.91920   1.00
O2       0.64057    0.24583    0.91920   1.00
O2       0.57972    0.40494    0.94514   1.00
O2       0.67129    0.45355    0.98443   1.00
O2       0.54080    0.31407    0.98404   1.00
O2       0.82523    0.42028    0.94514   1.00
O2       0.77327    0.45920    0.98404   1.00
O2       -0.21774   0.32871    0.98443   1.00
O2       0.59506    0.17477    0.94514   1.00
O2       0.54645    0.21774    0.98443   1.00
O2       -0.31407   0.22673    0.98404   1.00
C1       0.58057    0.39353    0.92691   1.00
C1       0.81297    0.41943    0.92691   1.00
C1       0.60647    0.18703    0.92691   1.00
C1       0.73330    0.47730    0.99006   1.00
C1       0.52270    0.25600    0.99006   1.00
C1       -0.25600   0.26670    0.99006   1.00
O1       0.66667    0.33333    0.20833   1.00
Zn1      0.66667    0.33333    0.23744   1.00
Zn1      0.70954    0.28182    0.19942   1.00
Zn1      0.71818    0.42773    0.19942   1.00
Zn1      0.57227    0.29046    0.19942   1.00
O2       0.69277    0.27193    0.24746   1.00
O2       0.72807    0.42083    0.24746   1.00
O2       0.57917    0.30723    0.24746   1.00
O2       0.73828    0.24638    0.22152   1.00
O2       0.78688    0.33796    0.18224   1.00
O2       0.64740    0.20747    0.18263   1.00
O2       0.75362    0.49189    0.22152   1.00
O2       0.79253    0.43994    0.18263   1.00
O2       0.66204    0.44893    0.18224   1.00
O2       0.50811    0.26172    0.22152   1.00
O2       0.55107    0.21312    0.18224   1.00
O2       0.56006    0.35260    0.18263   1.00
C1       0.72687    0.24723    0.23975   1.00
C1       0.75277    0.47963    0.23975   1.00
C1       0.52037    0.27313    0.23975   1.00
C1       0.81063    0.39997    0.17661   1.00
C1       0.58933    0.18937    0.17661   1.00
C1       0.60003    0.41067    0.17661   1.00
O1       0.66667    0.33333    0.70833   1.00
Zn1      0.66667    0.33333    0.73744   1.00
Zn1      0.71818    0.29046    0.69942   1.00
Zn1      0.57227    0.28182    0.69942   1.00
Zn1      0.70954    0.42773    0.69942   1.00
O2       0.72807    0.30723    0.74746   1.00
O2       0.57917    0.27193    0.74746   1.00
O2       0.69277    0.42083    0.74746   1.00
O2       0.75362    0.26172    0.72152   1.00
O2       0.66204    0.21312    0.68224   1.00
O2       0.79253    0.35260    0.68263   1.00
O2       0.50811    0.24638    0.72152   1.00
O2       0.56006    0.20747    0.68263   1.00
O2       0.55107    0.33796    0.68224   1.00
O2       0.73828    0.49189    0.72152   1.00
O2       0.78688    0.44893    0.68224   1.00
O2       0.64740    0.43994    0.68263   1.00
C1       0.75277    0.27313    0.73975   1.00
C1       0.52037    0.24723    0.73975   1.00
C1       0.72687    0.47963    0.73975   1.00
C1       0.60003    0.18937    0.67661   1.00
C1       0.81063    0.41067    0.67661   1.00
C1       0.58933    0.39997    0.67661   1.00
O1       0.66667    0.33333    0.45833   1.00
Zn1      0.66667    0.33333    0.42922   1.00
Zn1      -0.37621   0.38485    0.46725   1.00
Zn1      0.61515    0.23894    0.46725   1.00
Zn1      0.76106    0.37621    0.46725   1.00
O2       0.64057    0.39473    0.41920   1.00
O2       0.60527    0.24583    0.41920   1.00
O2       0.75417    0.35943    0.41920   1.00
O2       0.59506    0.42028    0.44514   1.00
O2       0.54645    0.32871    0.48443   1.00
O2       -0.31407   0.45920    0.48404   1.00
O2       0.57972    0.17477    0.44514   1.00
O2       0.54080    0.22673    0.48404   1.00
O2       0.67129    0.21774    0.48443   1.00
O2       0.82523    0.40494    0.44514   1.00
O2       -0.21774   0.45355    0.48443   1.00
O2       0.77327    0.31407    0.48404   1.00
C1       0.60647    0.41943    0.42691   1.00
C1       0.58057    0.18703    0.42691   1.00
C1       0.81297    0.39353    0.42691   1.00
C1       0.52270    0.26670    0.49006   1.00
C1       -0.25600   0.47730    0.49006   1.00
C1       0.73330    0.25600    0.49006   1.00
O1       0.33333    0.66667    0.29167   1.00
Zn1      0.33333    0.66667    0.26256   1.00
Zn1      0.28182    0.70954    0.30058   1.00
Zn1      0.42773    0.71818    0.30058   1.00
Zn1      0.29046    0.57227    0.30058   1.00
O2       0.27193    0.69277    0.25254   1.00
O2       0.42083    0.72807    0.25254   1.00
O2       0.30723    0.57917    0.25254   1.00
O2       0.24638    0.73828    0.27848   1.00
O2       0.33796    0.78688    0.31776   1.00
O2       0.20747    0.64740    0.31737   1.00
O2       0.49189    0.75362    0.27848   1.00
O2       0.43994    0.79253    0.31737   1.00
O2       0.44893    0.66204    0.31776   1.00
O2       0.26172    0.50811    0.27848   1.00
O2       0.21312    0.55107    0.31776   1.00
O2       0.35260    0.56006    0.31737   1.00
C1       0.24723    0.72687    0.26025   1.00
C1       0.47963    0.75277    0.26025   1.00
C1       0.27313    0.52037    0.26025   1.00
C1       0.39997    0.81063    0.32339   1.00
C1       0.18937    0.58933    0.32339   1.00
C1       0.41067    0.60003    0.32339   1.00
O1       0.33333    0.66667    0.54167   1.00
Zn1      0.33333    0.66667    0.57078   1.00
Zn1      0.37621    0.61515    0.53275   1.00
Zn1      0.38485    0.76106    0.53275   1.00
Zn1      0.23894    -0.37621   0.53275   1.00
O2       0.35943    0.60527    0.58080   1.00
O2       0.39473    0.75417    0.58080   1.00
O2       0.24583    0.64057    0.58080   1.00
O2       0.40494    0.57972    0.55486   1.00
O2       0.45355    0.67129    0.51557   1.00
O2       0.31407    0.54080    0.51596   1.00
O2       0.42028    0.82523    0.55486   1.00
O2       0.45920    0.77327    0.51596   1.00
O2       0.32871    -0.21774   0.51557   1.00
O2       0.17477    0.59506    0.55486   1.00
O2       0.21774    0.54645    0.51557   1.00
O2       0.22673    -0.31407   0.51596   1.00
C1       0.39353    0.58057    0.57309   1.00
C1       0.41943    0.81297    0.57309   1.00
C1       0.18703    0.60647    0.57309   1.00
C1       0.47730    0.73330    0.50994   1.00
C1       0.25600    0.52270    0.50994   1.00
C1       0.26670    -0.25600   0.50994   1.00
O1       0.33333    0.66667    0.04167   1.00
Zn1      0.33333    0.66667    0.07078   1.00
Zn1      0.38485    -0.37621   0.03275   1.00
Zn1      0.23894    0.61515    0.03275   1.00
Zn1      0.37621    0.76106    0.03275   1.00
O2       0.39473    0.64057    0.08080   1.00
O2       0.24583    0.60527    0.08080   1.00
O2       0.35943    0.75417    0.08080   1.00
O2       0.42028    0.59506    0.05486   1.00
O2       0.32871    0.54645    0.01557   1.00
O2       0.45920    -0.31407   0.01596   1.00
O2       0.17477    0.57972    0.05486   1.00
O2       0.22673    0.54080    0.01596   1.00
O2       0.21774    0.67129    0.01557   1.00
O2       0.40494    0.82523    0.05486   1.00
O2       0.45355    -0.21774   0.01557   1.00
O2       0.31407    0.77327    0.01596   1.00
C1       0.41943    0.60647    0.07309   1.00
C1       0.18703    0.58057    0.07309   1.00
C1       0.39353    0.81297    0.07309   1.00
C1       0.26670    0.52270    0.00994   1.00
C1       0.47730    -0.25600   0.00994   1.00
C1       0.25600    0.73330    0.00994   1.00
O1       0.33333    0.66667    0.79167   1.00
Zn1      0.33333    0.66667    0.76256   1.00
Zn1      0.29046    0.71818    0.80058   1.00
Zn1      0.28182    0.57227    0.80058   1.00
Zn1      0.42773    0.70954    0.80058   1.00
O2       0.30723    0.72807    0.75254   1.00
O2       0.27193    0.57917    0.75254   1.00
O2       0.42083    0.69277    0.75254   1.00
O2       0.26172    0.75362    0.77848   1.00
O2       0.21312    0.66204    0.81776   1.00
O2       0.35260    0.79253    0.81737   1.00
O2       0.24638    0.50811    0.77848   1.00
O2       0.20747    0.56006    0.81737   1.00
O2       0.33796    0.55107    0.81776   1.00
O2       0.49189    0.73828    0.77848   1.00
O2       0.44893    0.78688    0.81776   1.00
O2       0.43994    0.64740    0.81737   1.00
C1       0.27313    0.75277    0.76025   1.00
C1       0.24723    0.52037    0.76025   1.00
C1       0.47963    0.72687    0.76025   1.00
C1       0.18937    0.60003    0.82339   1.00
C1       0.41067    0.81063    0.82339   1.00
C1       0.39997    0.58933    0.82339   1.00
C5       0.11749    0.94595    0.55289   1.00
H2       0.09400    0.97856    0.55453   1.00
H2       0.12912    0.94670    0.53649   1.00
C5       0.18383    0.97626    0.56556   1.00
H2       0.22704    1.01850    0.55721   1.00
H2       0.19682    0.93597    0.56901   1.00
O_3      -0.09951   0.59458    0.54837   1.00
C4       -0.14065   0.69308    0.54920   1.00
C3c      -0.08150   0.75588    0.54548   1.00
H1       -0.05597   0.76492    0.53100   1.00
C3d      -0.17370   0.68269    0.56806   1.00
C3       -0.05387   0.80743    0.56034   1.00
O2       -0.00091   0.87032    0.55476   1.00
C3       -0.14559   0.73341    0.58303   1.00
H1       -0.17137   0.72221    0.59751   1.00
C2       -0.08539   0.79694    0.57960   1.00
C5       -0.13201   0.54393    0.56339   1.00
H2       -0.15829   0.49150    0.55686   1.00
H2       -0.17044   0.55129    0.57190   1.00
C5       -0.07746   0.54991    0.57803   1.00
H2       -0.04991   0.60288    0.58413   1.00
H2       -0.03974   0.54184    0.56941   1.00
C5       -0.10886   0.49803    0.59534   1.00
H2       -0.13686   0.44504    0.58935   1.00
H2       -0.14476   0.50753    0.60439   1.00
H2       -0.06807   0.50215    0.60563   1.00
C5       -0.28955   0.61728    0.56636   1.00
C5       0.06207    0.87432    0.55922   1.00
H2       -0.28992   0.62227    0.54958   1.00
H2       -0.29640   0.65822    0.57344   1.00
H2       0.06716    0.83500    0.55042   1.00
H2       0.06732    0.86557    0.57566   1.00
H2       0.17851    0.99868    0.58009   1.00
H2       -0.41196   0.52267    0.54486   1.00
H2       -0.42650   0.57393    0.56323   1.00
C2       -0.22279   0.53158    0.50547   1.00
C3       -0.24140   0.58248    0.50492   1.00
O2       -0.29770   0.57233    0.49400   1.00
C3       -0.17429   0.53740    0.52005   1.00
H1       -0.15766   0.50025    0.52052   1.00
C3a      -0.21292   0.63639    0.51910   1.00
H1       -0.23060   0.67277    0.51923   1.00
C3b      -0.14772   0.58985    0.53454   1.00
C4       -0.16706   0.63982    0.53418   1.00
O_3      -0.22905   0.62000    0.57304   1.00
C5       -0.27722   0.60834    0.47549   1.00
H2       -0.24373   0.66424    0.47809   1.00
C5       -0.34214   0.59546    0.46449   1.00
H2       -0.24916   0.58990    0.46591   1.00
H2       -0.35941   0.62944    0.47117   1.00
H2       -0.38254   0.54219    0.46796   1.00
C5       -0.33229   0.60651    0.44138   1.00
H2       -0.28830   0.65805    0.43823   1.00
H2       -0.37869   0.60233    0.43416   1.00
H2       -0.32345   0.56703    0.43408   1.00
C5       -0.34894   0.54815    0.57249   1.00
H2       -0.35568   0.54786    0.58923   1.00
H2       -0.33494   0.50853    0.56903   1.00
C5       -0.41521   0.53174    0.56136   1.00
H2       -0.45871   0.48457    0.56772   1.00
C5       0.13204    0.26885    0.57685   1.00
H2       0.08386    0.22094    0.57349   1.00
H2       0.14164    0.30261    0.56356   1.00
C5       0.12292    0.30182    0.59628   1.00
H2       0.09668    0.33109    0.59278   1.00
H2       0.17352    0.33683    0.60316   1.00
O_3      0.43756    0.27424    0.55884   1.00
C4       0.30666    0.16635    0.54912   1.00
C3c      0.26257    0.19284    0.55109   1.00
H1       0.26830    0.23325    0.54111   1.00
C3d      0.29771    0.11304    0.56208   1.00
C3       0.21130    0.16854    0.56605   1.00
O2       0.16496    0.19098    0.56545   1.00
C3       0.24755    0.08963    0.57725   1.00
H1       0.24418    0.05035    0.58730   1.00
C2       0.20302    0.11636    0.57959   1.00
C5       0.47600    0.25267    0.57031   1.00
H2       0.52619    0.26775    0.56315   1.00
H2       0.44775    0.19616    0.57227   1.00
C5       0.48874    0.28634    0.59101   1.00
H2       0.43864    0.27283    0.59792   1.00
H2       0.51752    0.34272    0.58888   1.00
C5       0.52834    0.26365    0.60477   1.00
H2       0.57823    0.27656    0.59790   1.00
H2       0.49860    0.20767    0.60749   1.00
H2       0.53848    0.28993    0.61968   1.00
C5       0.32127    0.03605    0.54731   1.00
C5       0.18700    0.24847    0.57819   1.00
H2       0.32082    0.05499    0.53178   1.00
H2       0.26926    -0.00710   0.55084   1.00
H2       0.23694    0.29104    0.57278   1.00
H2       0.19401    0.23752    0.59428   1.00
H2       0.09029    0.26223    0.60766   1.00
H2       0.38159    -0.00235   0.51502   1.00
H2       0.31074    -0.07541   0.52722   1.00
C2       0.46835    0.24330    0.50547   1.00
C3       0.40220    0.19164    0.49993   1.00
O2       0.39224    0.15383    0.48255   1.00
C3       0.47860    0.27082    0.52527   1.00
H1       0.52822    0.31163    0.52981   1.00
C3a      0.34884    0.16764    0.51427   1.00
H1       0.29944    0.12541    0.51017   1.00
C3b      0.42595    0.24534    0.53969   1.00
C4       0.36048    0.19326    0.53427   1.00
O_3      0.34295    0.08877    0.56179   1.00
C5       0.36626    0.17693    0.46691   1.00
H2       0.31659    0.17246    0.47134   1.00
C5       0.35559    0.13194    0.44838   1.00
H2       0.40286    0.23116    0.46303   1.00
H2       0.30701    0.08290    0.45040   1.00
H2       0.39724    0.11931    0.44836   1.00
C5       0.35483    0.16621    0.42824   1.00
H2       0.31667    0.18331    0.42914   1.00
H2       0.34128    0.12995    0.41534   1.00
H2       0.40615    0.21081    0.42473   1.00
C5       0.37169    0.01016    0.54779   1.00
H2       0.36361    -0.01924   0.56207   1.00
H2       0.42421    0.05507    0.54851   1.00
C5       0.36449    -0.03380   0.52912   1.00
H2       0.39685    -0.05752   0.53101   1.00
C5       0.74426    0.04737    0.63129   1.00
H2       0.73677    -0.00439   0.62871   1.00
H2       0.69320    0.04236    0.62942   1.00
C5       0.77128    0.07110    0.65306   1.00
H2       0.72876    0.04893    0.66425   1.00
H2       0.79757    0.12772    0.65401   1.00
O_3      0.86840    0.27755    0.55099   1.00
C4       0.83282    0.13946    0.54910   1.00
C3c      0.79650    0.10947    0.56701   1.00
H1       0.74807    0.10674    0.56965   1.00
C3d      0.89535    0.14164    0.54582   1.00
C3       0.82224    0.08354    0.58185   1.00
O2       0.78017    0.04760    0.59775   1.00
C3       0.92174    0.11704    0.56075   1.00
H1       0.97103    0.12200    0.55788   1.00
C2       0.88603    0.08723    0.57904   1.00
C5       0.93476    0.32183    0.54361   1.00
H2       0.93513    0.35608    0.53140   1.00
H2       0.95842    0.29256    0.53747   1.00
C5       0.97739    0.36556    0.56124   1.00
H2       0.97546    0.33128    0.57367   1.00
H2       0.95367    0.39501    0.56713   1.00
C5       1.05130    0.41373    0.55468   1.00
H2       1.05358    0.44778    0.54217   1.00
H2       1.07579    0.38433    0.54946   1.00
H2       1.08129    0.44632    0.56765   1.00
C5       0.91623    0.12964    0.51267   1.00
C5       0.79205    0.09180    0.61433   1.00
H2       0.86242    0.11103    0.50817   1.00
H2       0.92223    0.08476    0.51625   1.00
H2       0.78012    0.13232    0.60996   1.00
H2       0.84626    0.11782    0.61960   1.00
H2       0.80747    0.05351    0.65770   1.00
H2       0.88730    0.13018    0.47002   1.00
H2       0.92421    0.07694    0.47580   1.00
C2       0.76097    0.22607    0.50447   1.00
C3       0.73955    0.15587    0.50385   1.00
O2       0.71004    0.11835    0.48654   1.00
C3       0.80351    0.26559    0.52064   1.00
H1       0.81935    0.31908    0.52184   1.00
C3a      0.76222    0.12740    0.51888   1.00
H1       0.74855    0.07447    0.51754   1.00
C3b      0.82773    0.23761    0.53519   1.00
C4       0.80725    0.16805    0.53438   1.00
O_3      0.93551    0.17519    0.52919   1.00
C5       0.63867    0.07901    0.48892   1.00
H2       0.62475    0.04308    0.50199   1.00
C5       0.61004    0.03825    0.46932   1.00
H2       0.61606    0.11227    0.49142   1.00
H2       0.61755    -0.00671   0.46977   1.00
H2       0.64174    0.07094    0.45655   1.00
C5       0.53421    0.01543    0.46592   1.00
H2       0.50415    -0.01251   0.47950   1.00
H2       0.51378    -0.01877   0.45248   1.00
H2       0.52696    0.05997    0.46286   1.00
C5       0.96245    0.16830    0.49491   1.00
H2       1.01436    0.17656    0.49807   1.00
H2       0.96713    0.21963    0.49416   1.00
C5       0.93481    0.13040    0.47467   1.00
H2       0.97309    0.15629    0.46247   1.00
C5       0.68243    -0.11437   0.86369   1.00
H2       0.71773    -0.05839   0.86353   1.00
H2       0.63018    -0.12157   0.86353   1.00
C5       0.69445    -0.14653   0.84455   1.00
H2       0.66756    -0.14087   0.83120   1.00
H2       0.67558    -0.20169   0.84716   1.00
O_3      0.61570    -0.28137   0.95667   1.00
C4       0.69323    -0.13937   0.95086   1.00
C3c      0.68051    -0.12772   0.93083   1.00
H1       0.62973    -0.13949   0.92649   1.00
C3d      0.75998    -0.12277   0.95627   1.00
C3       0.73245    -0.10178   0.91607   1.00
O2       0.71822    -0.08394   0.89751   1.00
C3       0.81150    -0.09816   0.94151   1.00
H1       0.86133    -0.08844   0.94620   1.00
C2       0.79935    -0.08678   0.92114   1.00
C5       0.65056    -0.30704   0.96815   1.00
H2       0.62064    -0.33662   0.98163   1.00
H2       0.70077    -0.26491   0.97356   1.00
C5       0.66242    -0.35417   0.95450   1.00
H2       0.69064    -0.32512   0.94076   1.00
H2       0.61194    -0.39636   0.94935   1.00
C5       0.70238    -0.38256   0.96563   1.00
H2       0.67471    -0.41122   0.97944   1.00
H2       0.75372    -0.34063   0.97016   1.00
H2       0.70924    -0.41805   0.95556   1.00
C5       0.78959    -0.08333   0.98864   1.00
C5       0.69566    -0.13925   0.88386   1.00
H2       0.74555    -0.07479   0.99032   1.00
H2       0.83460    -0.03505   0.98327   1.00
H2       0.64773    -0.18389   0.88959   1.00
H2       0.73395    -0.15623   0.88179   1.00
H2       0.74975    -0.12047   0.84045   1.00
H2       0.75267    -0.06507   1.02914   1.00
H2       0.83906    -0.00070   1.02228   1.00
C2       0.53587    -0.22527   0.99584   1.00
C3       0.57165    -0.15419   0.99244   1.00
O2       0.56904    -0.11047   1.00652   1.00
C3       0.55103    -0.26692   0.98341   1.00
H1       0.52332    -0.32167   0.98527   1.00
C3a      0.62237    -0.12644   0.97728   1.00
H1       0.65199    -0.07163   0.97565   1.00
C3b      0.60299    -0.23898   0.96878   1.00
C4       0.63925    -0.16823   0.96564   1.00
O_3      0.77404    -0.13806   0.97536   1.00
C5       0.52394    -0.08841   0.99995   1.00
H2       0.54042    -0.06121   0.98510   1.00
C5       0.52479    -0.03950   1.01613   1.00
H2       0.47110    -0.13233   0.99830   1.00
H2       0.57120    0.01124    1.01386   1.00
H2       0.53068    -0.05855   1.03114   1.00
C5       0.46017    -0.03302   1.01581   1.00
H2       0.45214    -0.01921   1.00028   1.00
H2       0.46516    0.00710    1.02658   1.00
H2       0.41412    -0.08160   1.02061   1.00
C5       0.80589    -0.10184   1.00927   1.00
H2       0.85646    -0.09876   1.00835   1.00
H2       0.76749    -0.15603   1.01254   1.00
C5       0.80535    -0.05537   1.02623   1.00
H2       0.82431    -0.06559   1.04060   1.00
C5       0.26871    0.13187    0.92320   1.00
H2       0.22077    0.08371    0.92656   1.00
H2       0.30243    0.14144    0.93650   1.00
C5       0.30171    0.12271    0.90378   1.00
H2       0.33093    0.09644    0.90729   1.00
H2       0.33677    0.17331    0.89690   1.00
O_3      0.27434    0.43752    0.94118   1.00
C4       0.16635    0.30666    0.95088   1.00
C3c      0.19279    0.26253    0.94893   1.00
H1       0.23317    0.26822    0.95892   1.00
C3d      0.11308    0.29775    0.93790   1.00
C3       0.16850    0.21126    0.93397   1.00
O2       0.19088    0.16488    0.93457   1.00
C3       0.08968    0.24760    0.92274   1.00
H1       0.05044    0.24426    0.91267   1.00
C2       0.11636    0.20302    0.92041   1.00
C5       0.25284    0.47600    0.92969   1.00
H2       0.26794    0.52620    0.93685   1.00
H2       0.19633    0.44778    0.92772   1.00
C5       0.28656    0.48872    0.90900   1.00
H2       0.27302    0.43860    0.90209   1.00
H2       0.34293    0.51745    0.91114   1.00
C5       0.26394    0.52836    0.89522   1.00
H2       0.27687    0.57826    0.90209   1.00
H2       0.20797    0.49865    0.89250   1.00
H2       0.29025    0.53847    0.88032   1.00
C5       0.03611    0.32140    0.95265   1.00
C5       0.24840    0.18688    0.92185   1.00
H2       0.05501    0.32093    0.96818   1.00
H2       -0.00705   0.26940    0.94911   1.00
H2       0.29098    0.23680    0.92727   1.00
H2       0.23750    0.19390    0.90575   1.00
H2       0.26213    0.09011    0.89239   1.00
H2       -0.00229   0.38178    0.98493   1.00
H2       -0.07535   0.31096    0.97271   1.00
C2       0.24331    0.46835    0.99453   1.00
C3       0.19159    0.40222    1.00006   1.00
O2       0.15375    0.39228    1.01743   1.00
C3       0.27086    0.47858    0.97473   1.00
H1       0.31172    0.52819    0.97020   1.00
C3a      0.16759    0.34885    0.98573   1.00
H1       0.12533    0.29947    0.98982   1.00
C3b      0.24539    0.42594    0.96031   1.00
C4       0.19326    0.36048    0.96573   1.00
O_3      0.08886    0.34304    0.93819   1.00
C5       0.17678    0.36628    1.03308   1.00
H2       0.17228    0.31658    1.02866   1.00
C5       0.13175    0.35564    1.05160   1.00
H2       0.23101    0.40284    1.03697   1.00
H2       0.08269    0.30708    1.04957   1.00
H2       0.11917    0.39732    1.05161   1.00
C5       0.16596    0.35485    1.07175   1.00
H2       0.18302    0.31665    1.07087   1.00
H2       0.12967    0.34132    1.08464   1.00
H2       0.21058    0.40615    1.07527   1.00
C5       0.01029    0.37186    0.95215   1.00
H2       -0.01907   0.36381    0.93787   1.00
H2       0.05523    0.42436    0.95144   1.00
C5       -0.03370   0.36470    0.97081   1.00
H2       -0.05738   0.39709    0.96892   1.00
C5       0.04735    0.74425    0.86872   1.00
H2       -0.00441   0.73675    0.87130   1.00
H2       0.04234    0.69318    0.87058   1.00
C5       0.07107    0.77125    0.84694   1.00
H2       0.04890    0.72873    0.83575   1.00
H2       0.12769    0.79754    0.84600   1.00
O_3      0.27755    0.86839    0.94901   1.00
C4       0.13946    0.83282    0.95090   1.00
C3c      0.10947    0.79649    0.93299   1.00
H1       0.10673    0.74807    0.93035   1.00
C3d      0.14164    0.89536    0.95418   1.00
C3       0.08354    0.82223    0.91815   1.00
O2       0.04758    0.78016    0.90225   1.00
C3       0.11705    0.92175    0.93925   1.00
H1       0.12201    0.97103    0.94212   1.00
C2       0.08723    0.88603    0.92096   1.00
C5       0.32183    0.93475    0.95639   1.00
H2       0.35608    0.93512    0.96860   1.00
H2       0.29257    0.95842    0.96253   1.00
C5       0.36556    0.97738    0.93875   1.00
H2       0.33128    0.97544    0.92633   1.00
H2       0.39500    0.95364    0.93287   1.00
C5       0.41374    1.05128    0.94532   1.00
H2       0.44779    1.05356    0.95782   1.00
H2       0.38434    1.07577    0.95053   1.00
H2       0.44632    1.08127    0.93234   1.00
C5       0.12966    0.91624    0.98733   1.00
C5       0.09178    0.79203    0.88567   1.00
H2       0.11104    0.86243    0.99183   1.00
H2       0.08478    0.92224    0.98375   1.00
H2       0.13230    0.78011    0.89004   1.00
H2       0.11781    0.84624    0.88040   1.00
H2       0.05348    0.80745    0.84231   1.00
H2       0.13020    0.88733    1.02998   1.00
H2       0.07697    0.92424    1.02420   1.00
C2       0.22608    0.76097    0.99553   1.00
C3       0.15587    0.73956    0.99615   1.00
O2       0.11836    0.71005    1.01347   1.00
C3       0.26559    0.80351    0.97936   1.00
H1       0.31908    0.81934    0.97816   1.00
C3a      0.12740    0.76223    0.98112   1.00
H1       0.07448    0.74856    0.98246   1.00
C3b      0.23761    0.82772    0.96481   1.00
C4       0.16805    0.80725    0.96562   1.00
O_3      0.17520    0.93551    0.97081   1.00
C5       0.07901    0.63868    1.01108   1.00
H2       0.04308    0.62476    0.99802   1.00
C5       0.03826    0.61006    1.03068   1.00
H2       0.11227    0.61606    1.00858   1.00
H2       -0.00670   0.61758    1.03024   1.00
H2       0.07095    0.64176    1.04346   1.00
C5       0.01543    0.53423    1.03409   1.00
H2       -0.01251   0.50417    1.02051   1.00
H2       -0.01876   0.51380    1.04752   1.00
H2       0.05997    0.52698    1.03715   1.00
C5       0.16833    0.96247    1.00509   1.00
H2       0.17659    1.01438    1.00193   1.00
H2       0.21965    0.96714    1.00583   1.00
C5       0.13043    0.93483    1.02533   1.00
H2       0.15633    0.97312    1.03753   1.00
C5       -0.04413   0.01650    0.45813   1.00
H2       -0.08212   0.01536    0.44725   1.00
H2       -0.06291   0.01940    0.47345   1.00
C5       -0.04047   -0.04965   0.45596   1.00
H2       -0.08277   -0.09236   0.46445   1.00
H2       0.00911    -0.04140   0.46191   1.00
O_3      0.25152    0.32760    0.47445   1.00
C4       0.13971    0.30741    0.45066   1.00
C3c      0.08665    0.24148    0.45530   1.00
H1       0.06569    0.23010    0.47046   1.00
C3d      0.16563    0.32144    0.43073   1.00
C3       0.06051    0.18917    0.44065   1.00
O2       0.00324    0.12849    0.44559   1.00
C3       0.14061    0.26913    0.41622   1.00
H1       0.16373    0.28170    0.40134   1.00
C2       0.08748    0.20199    0.42072   1.00
C5       0.31409    0.36285    0.46395   1.00
H2       0.35232    0.40916    0.47228   1.00
H2       0.30684    0.37887    0.44858   1.00
C5       0.34208    0.31462    0.46170   1.00
H2       0.30309    0.26750    0.45389   1.00
H2       0.34972    0.29946    0.47714   1.00
C5       0.40919    0.34821    0.44976   1.00
H2       0.44821    0.39556    0.45740   1.00
H2       0.40114    0.36121    0.43411   1.00
H2       0.42963    0.31275    0.44866   1.00
C5       0.19856    0.42931    0.41998   1.00
C5       0.02242    0.08243    0.45347   1.00
H2       0.17159    0.43831    0.43265   1.00
H2       0.16367    0.40973    0.40663   1.00
H2       0.05293    0.10352    0.46762   1.00
H2       0.05419    0.07222    0.44259   1.00
H2       -0.04624   -0.06641   0.43978   1.00
H2       0.23409    0.56839    0.42843   1.00
H2       0.20105    0.54149    0.40292   1.00
C2       0.22652    0.46651    0.49509   1.00
C3       0.16822    0.45499    0.48409   1.00
O2       0.14886    0.50387    0.48365   1.00
C3       0.25291    0.42235    0.49176   1.00
H1       0.29641    0.42871    0.50032   1.00
C3a      0.13898    0.40146    0.46980   1.00
H1       0.09676    0.39575    0.46067   1.00
C3b      0.22506    0.37056    0.47708   1.00
C4       0.16774    0.35983    0.46593   1.00
O_3      0.22126    0.38400    0.42579   1.00
C5       0.09350    0.48573    0.49692   1.00
H2       0.04861    0.43566    0.49261   1.00
C5       0.07445    0.54159    0.49531   1.00
H2       0.10787    0.48243    0.51288   1.00
H2       0.04331    0.53240    0.48136   1.00
H2       0.12257    0.59091    0.49300   1.00
C5       0.03587    0.54525    0.51411   1.00
H2       -0.00904   0.49418    0.51712   1.00
H2       0.01792    0.58238    0.51167   1.00
H2       0.06954    0.56297    0.52780   1.00
C5       0.26118    0.49678    0.41434   1.00
H2       0.28128    0.49023    0.39960   1.00
H2       0.30140    0.50864    0.42593   1.00
C5       0.24523    0.55529    0.41311   1.00
H2       0.28994    0.60183    0.40694   1.00
C5       0.72895    0.70634    0.37921   1.00
H2       0.73303    0.74638    0.36863   1.00
H2       0.67496    0.66466    0.37847   1.00
C5       0.77707    0.68033    0.37210   1.00
H2       0.75309    0.64210    0.35973   1.00
H2       0.78911    0.65650    0.38503   1.00
O_3      0.69191    0.74886    0.48209   1.00
C4       0.69275    0.83354    0.45070   1.00
C3c      0.68580    0.79794    0.43259   1.00
H1       0.63946    0.75028    0.42974   1.00
C3d      0.75314    0.89604    0.45399   1.00
C3       0.73848    0.82249    0.41808   1.00
O2       0.72482    0.78934    0.39971   1.00
C3       0.80621    0.91997    0.43975   1.00
H1       0.85251    0.96691    0.44326   1.00
C2       0.80032    0.88423    0.42146   1.00
C5       0.73896    0.78569    0.49764   1.00
H2       0.71429    0.77516    0.51286   1.00
H2       0.76452    0.84173    0.49482   1.00
C5       0.79239    0.76383    0.49785   1.00
H2       0.81571    0.77256    0.48247   1.00
H2       0.76639    0.70795    0.50086   1.00
C5       0.84717    0.80337    0.51392   1.00
H2       0.82418    0.79526    0.52930   1.00
H2       0.87477    0.85896    0.51053   1.00
H2       0.88493    0.78564    0.51416   1.00
C5       0.73739    0.97442    0.47123   1.00
C5       0.74479    0.73935    0.40025   1.00
H2       0.68125    0.94538    0.46887   1.00
H2       0.76112    1.01253    0.45876   1.00
H2       0.71519    0.70042    0.41209   1.00
H2       0.80015    0.76143    0.40387   1.00
H2       0.82558    0.72276    0.36574   1.00
H2       0.65442    1.00878    0.49637   1.00
H2       0.71548    1.08009    0.48106   1.00
C2       0.53760    0.75776    0.49641   1.00
C3       0.53498    0.79715    0.48021   1.00
O2       0.49380    0.82583    0.48143   1.00
C3       0.59035    0.74149    0.49652   1.00
H1       0.59275    0.70996    0.50843   1.00
C3a      0.58544    0.82063    0.46496   1.00
H1       0.58496    0.85396    0.45329   1.00
C3b      0.64168    0.76673    0.48169   1.00
C4       0.63961    0.80676    0.46576   1.00
O_3      0.76461    0.93043    0.47221   1.00
C5       0.43392    0.78740    0.46993   1.00
H2       0.44604    0.78517    0.45362   1.00
C5       0.39177    0.82297    0.47176   1.00
H2       0.40379    0.73433    0.47585   1.00
H2       0.41323    0.86717    0.46117   1.00
H2       0.39946    0.84440    0.48738   1.00
C5       0.31529    0.77492    0.46748   1.00
H2       0.30892    0.74987    0.45251   1.00
H2       0.28738    0.80377    0.46728   1.00
H2       0.29100    0.73514    0.47954   1.00
C5       0.75228    1.01196    0.49139   1.00
H2       0.80781    1.04983    0.49212   1.00
H2       0.74130    0.97446    0.50381   1.00
C5       0.70955    1.04701    0.49428   1.00
H2       0.72677    1.07958    0.50807   1.00
C5       0.23316    0.13744    0.43438   1.00
H2       0.24708    0.13662    0.41828   1.00
H2       0.28191    0.16133    0.44296   1.00
C5       0.19796    0.18072    0.43642   1.00
H2       0.23642    0.23607    0.43703   1.00
H2       0.16651    0.16628    0.45047   1.00
O_3      0.11731    -0.16057   0.49058   1.00
C4       0.16729    -0.14032   0.45059   1.00
C3c      0.19866    -0.06983   0.44708   1.00
H1       0.24319    -0.03522   0.45577   1.00
C3d      0.10990    -0.18462   0.43891   1.00
C3       0.17279    -0.04283   0.43262   1.00
O2       0.21088    0.02567    0.42828   1.00
C3       0.08324    -0.15781   0.42477   1.00
H1       0.03772    -0.19361   0.41667   1.00
C2       0.11390    -0.08661   0.42118   1.00
C5       0.05278    -0.21984   0.49264   1.00
H2       0.05248    -0.25468   0.50463   1.00
H2       0.03623    -0.24880   0.47808   1.00
C5       0.00206    -0.19744   0.49850   1.00
H2       0.00375    -0.16111   0.48681   1.00
H2       0.01874    -0.16914   0.51314   1.00
C5       -0.07022   -0.25887   0.50035   1.00
H2       -0.07217   -0.29559   0.51191   1.00
H2       -0.08783   -0.28577   0.48556   1.00
H2       -0.10630   -0.24164   0.50509   1.00
C5       0.10293    -0.28639   0.43163   1.00
C5       0.18910    0.06251    0.44050   1.00
H2       0.15672    -0.26761   0.43618   1.00
H2       0.10142    -0.27826   0.41499   1.00
H2       0.19690    0.05574    0.45687   1.00
H2       0.13381    0.04532    0.43837   1.00
H2       0.16478    0.17364    0.42302   1.00
H2       0.14401    -0.38650   0.43889   1.00
H2       0.11398    -0.38946   0.41314   1.00
C2       0.23890    -0.22497   0.49592   1.00
C3       0.26729    -0.21188   0.47625   1.00
O2       0.30495    -0.24105   0.46986   1.00
C3       0.18925    -0.20636   0.50041   1.00
H1       0.16782    -0.21408   0.51547   1.00
C3a      0.24451    -0.18254   0.46153   1.00
H1       0.26391    -0.17644   0.44622   1.00
C3b      0.16514    -0.17922   0.48556   1.00
C4       0.19265    -0.16721   0.46592   1.00
O_3      0.07412    -0.25393   0.44283   1.00
C5       0.37523    -0.19279   0.47065   1.00
H2       0.38806    -0.14789   0.46077   1.00
C5       0.41321    -0.22856   0.46305   1.00
H2       0.39155    -0.17450   0.48647   1.00
H2       0.41135    -0.22984   0.44617   1.00
H2       0.38412    -0.28255   0.46826   1.00
C5       0.48763    -0.19423   0.47055   1.00
H2       0.51437    -0.13914   0.46661   1.00
H2       0.51516    -0.21805   0.46336   1.00
H2       0.49017    -0.20021   0.48731   1.00
C5       0.06127    -0.36242   0.43611   1.00
H2       0.01091    -0.38338   0.42844   1.00
H2       0.05113    -0.36906   0.45273   1.00
C5       0.09820    -0.40059   0.42931   1.00
H2       0.06358    -0.45648   0.43086   1.00
C5       0.31028    0.07230    0.13371   1.00
H2       0.29037    0.10520    0.13936   1.00
H2       0.36659    0.10294    0.13531   1.00
C5       0.28138    0.00700    0.14683   1.00
H2       0.31099    0.01701    0.16114   1.00
H2       0.28356    -0.03422   0.13826   1.00
O_3      0.34506    0.05480    0.02933   1.00
C4       0.30700    0.14070    0.04923   1.00
C3c      0.32140    0.13875    0.06985   1.00
H1       0.37357    0.15855    0.07469   1.00
C3d      0.23877    0.11552    0.04328   1.00
C3       0.26907    0.11053    0.08447   1.00
O2       0.28766    0.11793    0.10459   1.00
C3       0.18643    0.08621    0.05775   1.00
H1       0.13468    0.06537    0.05237   1.00
C2       0.20002    0.08314    0.07864   1.00
C5       0.29897    0.01564    0.01384   1.00
H2       0.32492    0.02231    -0.00105   1.00
H2       0.25846    0.02952    0.01189   1.00
C5       0.26605    -0.05886   0.01998   1.00
H2       0.24176    -0.06517   0.03512   1.00
H2       0.30688    -0.07232   0.02169   1.00
C5       0.21317    -0.10506   0.00424   1.00
H2       0.23698    -0.09867   -0.01095   1.00
H2       0.17113    -0.09325   0.00303   1.00
H2       0.19074    -0.15940   0.00876   1.00
C5       0.22603    0.17349    0.01693   1.00
C5       0.29064    0.06011    0.11125   1.00
H2       0.27905    0.21684    0.01846   1.00
H2       0.19137    0.18498    0.02600   1.00
H2       0.32996    0.05502    0.10245   1.00
H2       0.24101    0.01162    0.10927   1.00
H2       0.22748    -0.01099   0.15143   1.00
H2       0.28241    0.26759    -0.01662   1.00
H2       0.20652    0.26389    -0.00602   1.00
C2       0.46301    0.21879    0.00376   1.00
C3       0.44727    0.26344    0.01431   1.00
O2       0.46864    0.32805    0.00692   1.00
C3       0.42856    0.14908    0.00931   1.00
H1       0.44070    0.11391    0.00189   1.00
C3a      0.39687    0.23755    0.02959   1.00
H1       0.38266    0.27166    0.03671   1.00
C3b      0.37694    0.12311    0.02406   1.00
C4       0.36060    0.16737    0.03431   1.00
O_3      0.22137    0.11155    0.02301   1.00
C5       0.52600    0.37673    0.01786   1.00
H2       0.51407    0.37580    0.03434   1.00
C5       0.54574    0.44673    0.00903   1.00
H2       0.56959    0.36731    0.01622   1.00
H2       0.51101    0.46344    0.01548   1.00
H2       0.53539    0.44000    -0.00757   1.00
C5       0.62083    0.50069    0.01309   1.00
H2       0.63162    0.50286    0.02960   1.00
H2       0.63168    0.55202    0.00797   1.00
H2       0.65644    0.48897    0.00457   1.00
C5       0.20528    0.16629    -0.00529   1.00
H2       0.14917    0.13127    -0.00634   1.00
H2       0.22994    0.14123    -0.01346   1.00
C5       0.22588    0.23567    -0.01509   1.00
H2       0.20380    0.22789    -0.03057   1.00
C5       0.71828    0.71478    0.12539   1.00
H2       0.76285    0.72320    0.13462   1.00
H2       0.68068    0.65945    0.12659   1.00
C5       0.68813    0.75741    0.13420   1.00
H2       0.65443    0.73099    0.14739   1.00
H2       0.65808    0.76587    0.12237   1.00
O_3      0.73581    0.68212    0.02092   1.00
C4       0.83360    0.69282    0.04928   1.00
C3c      0.80257    0.68284    0.06838   1.00
H1       0.75855    0.63412    0.07203   1.00
C3d      0.89151    0.75637    0.04495   1.00
C3       0.82698    0.73543    0.08293   1.00
O2       0.79930    0.71940    0.10209   1.00
C3       0.91514    0.80925    0.05925   1.00
H1       0.95822    0.85784    0.05497   1.00
C2       0.88391    0.80026    0.07856   1.00
C5       0.76463    0.73004    0.00502   1.00
H2       0.75169    0.70532    -0.01020   1.00
H2       0.82132    0.76024    0.00637   1.00
C5       0.73606    0.77796    0.00650   1.00
H2       0.74732    0.80122    0.02192   1.00
H2       0.67953    0.74736    0.00495   1.00
C5       0.76674    0.83344    -0.00986   1.00
H2       0.75610    0.81056    -0.02530   1.00
H2       0.82291    0.86553    -0.00789   1.00
H2       0.74414    0.86706    -0.00882   1.00
C5       0.96991    0.74963    0.02484   1.00
C5       0.74479    0.73277    0.10361   1.00
H2       0.94623    0.69369    0.02718   1.00
H2       1.01094    0.77640    0.03637   1.00
H2       0.70370    0.70041    0.09263   1.00
H2       0.76090    0.78719    0.10024   1.00
H2       0.72921    0.80783    0.13995   1.00
H2       1.00708    0.67468    -0.00281   1.00
H2       1.07970    0.74024    0.01107   1.00
C2       0.75719    0.53749    0.00362   1.00
C3       0.80348    0.53967    0.01835   1.00
O2       0.83745    0.50398    0.01544   1.00
C3       0.73456    0.58538    0.00500   1.00
H1       0.69779    0.58395    -0.00573   1.00
C3a      0.82723    0.59007    0.03363   1.00
H1       0.86560    0.59351    0.04409   1.00
C3b      0.75993    0.63678    0.01981   1.00
C4       0.80675    0.63955    0.03426   1.00
O_3      0.92076    0.77047    0.02585   1.00
C5       0.80710    0.44372    0.02712   1.00
H2       0.80837    0.45526    0.04364   1.00
C5       0.84819    0.40785    0.02334   1.00
H2       0.75307    0.40947    0.02250   1.00
H2       0.89527    0.43309    0.03276   1.00
H2       0.86509    0.41705    0.00721   1.00
C5       0.80738    0.33075    0.02787   1.00
H2       0.78637    0.32239    0.04351   1.00
H2       0.84055    0.30761    0.02660   1.00
H2       0.76478    0.30329    0.01680   1.00
C5       1.00151    0.76726    0.00376   1.00
H2       1.03496    0.82362    0.00274   1.00
H2       0.95978    0.75256    -0.00750   1.00
C5       1.04180    0.73076    -0.00106   1.00
H2       1.06987    0.75018    -0.01558   1.00
C5       0.13738    0.23281    0.06552   1.00
H2       0.13667    0.24682    0.08163   1.00
H2       0.16130    0.28153    0.05693   1.00
C5       0.18056    0.19750    0.06349   1.00
H2       0.23592    0.23590    0.06286   1.00
H2       0.16602    0.16598    0.04945   1.00
O_3      -0.16082   0.11712    0.00944   1.00
C4       -0.14032   0.16729    0.04941   1.00
C3c      -0.06982   0.19858    0.05289   1.00
H1       -0.03520   0.24305    0.04419   1.00
C3d      -0.18462   0.10998    0.06112   1.00
C3       -0.04283   0.17271    0.06736   1.00
O2       0.02571    0.21074    0.07166   1.00
C3       -0.15782   0.08332    0.07526   1.00
H1       -0.19363   0.03786    0.08338   1.00
C2       -0.08662   0.11390    0.07882   1.00
C5       -0.22015   0.05263    0.00742   1.00
H2       -0.25502   0.05233    -0.00457   1.00
H2       -0.24905   0.03618    0.02198   1.00
C5       -0.19789   0.00180    0.00156   1.00
H2       -0.16153   0.00348    0.01325   1.00
H2       -0.16965   0.01837    -0.01309   1.00
C5       -0.25940   -0.07045   -0.00026   1.00
H2       -0.29614   -0.07239   -0.01180   1.00
H2       -0.28624   -0.08796   0.01455   1.00
H2       -0.24226   -0.10661   -0.00498   1.00
C5       -0.28629   0.10321    0.06843   1.00
C5       0.06242    0.18882    0.05944   1.00
H2       -0.26745   0.15699    0.06385   1.00
H2       -0.27809   0.10176    0.08507   1.00
H2       0.05560    0.19656    0.04308   1.00
H2       0.04516    0.13352    0.06159   1.00
H2       0.17349    0.16436    0.07690   1.00
H2       -0.38627   0.14447    0.06118   1.00
H2       -0.38917   0.11453    0.08694   1.00
C2       -0.22498   0.23890    0.00408   1.00
C3       -0.21176   0.26738    0.02374   1.00
O2       -0.24081   0.30515    0.03012   1.00
C3       -0.20649   0.18916    -0.00040   1.00
H1       -0.21431   0.16765    -0.01546   1.00
C3a      -0.18242   0.24460    0.03846   1.00
H1       -0.17622   0.26407    0.05376   1.00
C3b      -0.17934   0.16504    0.01445   1.00
C4       -0.16721   0.19265    0.03408   1.00
O_3      -0.25395   0.07427    0.05723   1.00
C5       -0.19248   0.37541    0.02931   1.00
H2       -0.14755   0.38821    0.03917   1.00
C5       -0.22812   0.41352    0.03690   1.00
H2       -0.17425   0.39163    0.01348   1.00
H2       -0.22933   0.41173    0.05378   1.00
H2       -0.28214   0.38447    0.03172   1.00
C5       -0.19372   0.48791    0.02938   1.00
H2       -0.13861   0.51460    0.03329   1.00
H2       -0.21744   0.51553    0.03656   1.00
H2       -0.19977   0.49038    0.01262   1.00
C5       -0.36235   0.06163    0.06397   1.00
H2       -0.38334   0.01130    0.07167   1.00
H2       -0.36908   0.05141    0.04736   1.00
C5       -0.40039   0.09869    0.07077   1.00
H2       -0.45630   0.06413    0.06925   1.00
C5       0.67321    1.32008    0.87451   1.00
H2       0.63703    1.32763    0.88401   1.00
H2       0.65754    1.32015    0.85855   1.00
C5       0.74663    1.37957    0.87810   1.00
H2       0.75656    1.42508    0.86901   1.00
H2       0.78424    1.36379    0.87377   1.00
O_3      0.61199    0.98873    0.86252   1.00
C4       0.52588    1.02602    0.88265   1.00
C3c      0.54983    1.09445    0.87747   1.00
H1       0.54743    1.10786    0.86188   1.00
C3d      0.52857    1.00951    0.90311   1.00
C3       0.57799    1.14659    0.89216   1.00
O2       0.59262    1.21096    0.88643   1.00
C3       0.55778    1.06146    0.91770   1.00
H1       0.56095    1.04662    0.93306   1.00
C2       0.58292    1.13102    0.91268   1.00
C5       0.62776    0.94672    0.87447   1.00
H2       0.61511    0.89819    0.86662   1.00
H2       0.59969    0.93374    0.88919   1.00
C5       0.70394    0.98595    0.87865   1.00
H2       0.71690    1.03531    0.88598   1.00
H2       0.73145    0.99807    0.86386   1.00
C5       0.72516    0.94472    0.89222   1.00
H2       0.71194    0.89515    0.88506   1.00
H2       0.69952    0.93463    0.90725   1.00
H2       0.78121    0.97358    0.89474   1.00
C5       0.43987    0.90646    0.91283   1.00
C5       0.66143    1.24942    0.88018   1.00
H2       0.40952    0.90241    0.89910   1.00
H2       0.42550    0.93029    0.92527   1.00
H2       0.67045    1.22491    0.86676   1.00
H2       0.69789    1.25373    0.89232   1.00
H2       0.75471    1.39612    0.89433   1.00
H2       0.32563    0.77417    0.90292   1.00
H2       0.31727    0.80465    0.92767   1.00
C2       0.44680    0.86625    0.83836   1.00
C3       0.40336    0.88656    0.84748   1.00
O2       0.33350    0.84538    0.84627   1.00
C3       0.51688    0.90207    0.84348   1.00
H1       0.55178    0.88894    0.83637   1.00
C3a      0.43013    0.94029    0.86172   1.00
H1       0.39554    0.95264    0.86943   1.00
C3b      0.54293    0.95402    0.85813   1.00
C4       0.49949    0.97345    0.86741   1.00
O_3      0.51046    0.94372    0.90875   1.00
C5       0.30674    0.87062    0.83148   1.00
H2       0.31855    0.92354    0.83518   1.00
C5       0.22936    0.82308    0.83131   1.00
H2       0.32780    0.87085    0.81618   1.00
H2       0.20709    0.83688    0.84427   1.00
H2       0.21937    0.77046    0.83432   1.00
C5       0.19601    0.82564    0.81118   1.00
H2       0.21095    0.87929    0.80761   1.00
H2       0.13941    0.79494    0.81224   1.00
H2       0.21135    0.80368    0.79840   1.00
C5       0.42261    0.83507    0.91931   1.00
H2       0.44354    0.83808    0.93480   1.00
H2       0.44953    0.81741    0.90896   1.00
C5       0.34531    0.78462    0.91881   1.00
H2       0.33411    0.73518    0.92561   1.00
C5       -0.04076   0.60636    0.96113   1.00
H2       -0.08803   0.60772    0.95764   1.00
H2       0.00205    0.65875    0.95823   1.00
C5       -0.04144   0.58692    0.98367   1.00
H2       -0.02480   0.63217    0.99365   1.00
H2       -0.00674   0.56595    0.98595   1.00
O_3      0.08477    0.47904    0.88704   1.00
C4       -0.02673   0.50041    0.88242   1.00
C3c      -0.02418   0.54023    0.89909   1.00
H1       0.01850    0.59139    0.90076   1.00
C3d      -0.08327   0.43422    0.88038   1.00
C3       -0.07575   0.51462    0.91397   1.00
O2       -0.07404   0.55922    0.92845   1.00
C3       -0.13405   0.40811    0.89537   1.00
H1       -0.17520   0.35623    0.89353   1.00
C2       -0.13189   0.44741    0.91244   1.00
C5       0.06887    0.41236    0.88163   1.00
H2       0.10458    0.41230    0.87000   1.00
H2       0.01592    0.38257    0.87553   1.00
C5       0.07451    0.37760    0.90064   1.00
H2       0.04025    0.37936    0.91246   1.00
H2       0.12772    0.40740    0.90649   1.00
C5       0.05560    0.30368    0.89624   1.00
H2       0.08931    0.30151    0.88436   1.00
H2       0.00172    0.27328    0.89108   1.00
H2       0.06148    0.27959    0.91021   1.00
C5       -0.11523   0.40157    0.84761   1.00
C5       -0.03894   0.55642    0.94583   1.00
H2       -0.08410   0.45458    0.84183   1.00
H2       -0.16803   0.39132    0.85062   1.00
H2       0.01486    0.57217    0.94187   1.00
H2       -0.06267   0.50404    0.95250   1.00
H2       -0.09402   0.54838    0.98871   1.00
H2       -0.08710   0.41976    0.80463   1.00
H2       -0.17778   0.37684    0.81029   1.00
C2       0.13220    0.57256    0.83794   1.00
C3       0.07865    0.58701    0.83586   1.00
O2       0.06717    0.60881    0.81750   1.00
C3       0.13353    0.53701    0.85542   1.00
H1       0.17477    0.52671    0.85772   1.00
C3a      0.02730    0.56439    0.85082   1.00
H1       -0.01540   0.57244    0.84844   1.00
C3b      0.08123    0.51269    0.86995   1.00
C4       0.02747    0.52617    0.86771   1.00
O_3      -0.08569   0.39116    0.86510   1.00
C5       0.09300    0.67986    0.81792   1.00
H2       0.06828    0.69418    0.83012   1.00
C5       0.07732    0.69973    0.79727   1.00
H2       0.14919    0.70796    0.82048   1.00
H2       0.02303    0.68698    0.79718   1.00
H2       0.08191    0.66652    0.78565   1.00
C5       0.12473    0.77563    0.79209   1.00
H2       0.12358    0.80788    0.80461   1.00
H2       0.10817    0.78940    0.77782   1.00
H2       0.17835    0.78730    0.78957   1.00
C5       -0.11799   0.35239    0.83140   1.00
H2       -0.15820   0.29985    0.83566   1.00
H2       -0.06850   0.35299    0.83152   1.00
C5       -0.13161   0.37136    0.81017   1.00
H2       -0.14035   0.33066    0.79914   1.00
C5       0.41967    0.39334    0.96593   1.00
H2       0.40952    0.34042    0.96380   1.00
H2       0.36944    0.39050    0.96450   1.00
C5       0.45004    0.41904    0.98729   1.00
H2       0.40904    0.39988    0.99896   1.00
H2       0.47852    0.47579    0.98760   1.00
O_3      0.54105    0.61253    0.88299   1.00
C4       0.49945    0.47277    0.88244   1.00
C3c      0.46500    0.44615    0.90083   1.00
H1       0.41804    0.44608    0.90387   1.00
C3d      0.56003    0.47149    0.87866   1.00
C3       0.49079    0.42023    0.91566   1.00
O2       0.45019    0.38755    0.93215   1.00
C3       0.58653    0.44691    0.89356   1.00
H1       0.63440    0.44918    0.89028   1.00
C2       0.55274    0.42049    0.91233   1.00
C5       0.60685    0.65361    0.87477   1.00
H2       0.60724    0.68709    0.86231   1.00
H2       0.62766    0.62172    0.86868   1.00
C5       0.65285    0.69847    0.89172   1.00
H2       0.65096    0.66508    0.90441   1.00
H2       0.63195    0.73053    0.89756   1.00
C5       0.72630    0.74328    0.88423   1.00
H2       0.72850    0.77642    0.87146   1.00
H2       0.74803    0.71132    0.87905   1.00
H2       0.75883    0.77677    0.89671   1.00
C5       0.57536    0.45398    0.84547   1.00
C5       0.46611    0.43429    0.94828   1.00
H2       0.52144    0.43703    0.84154   1.00
H2       0.57951    0.40822    0.84935   1.00
H2       0.45588    0.47577    0.94370   1.00
H2       0.52088    0.45890    0.95293   1.00
H2       0.48506    0.39984    0.99178   1.00
H2       0.54153    0.45056    0.80309   1.00
H2       0.57567    0.39500    0.80899   1.00
C2       0.42770    0.55928    0.83774   1.00
C3       0.40336    0.48844    0.83782   1.00
O2       0.37049    0.44932    0.82104   1.00
C3       0.47321    0.59966    0.85326   1.00
H1       0.49140    0.65375    0.85393   1.00
C3a      0.42607    0.46009    0.85288   1.00
H1       0.41001    0.40645    0.85206   1.00
C3b      0.49739    0.57167    0.86783   1.00
C4       0.47396    0.50142    0.86770   1.00
O_3      0.59855    0.50172    0.86148   1.00
C5       0.29937    0.41290    0.82427   1.00
H2       0.28581    0.37849    0.83771   1.00
C5       0.26690    0.37013    0.80523   1.00
H2       0.27929    0.44836    0.82669   1.00
H2       0.27210    0.32382    0.80596   1.00
H2       0.29766    0.40039    0.79197   1.00
C5       0.19148    0.35010    0.80258   1.00
H2       0.16265    0.32473    0.81660   1.00
H2       0.16812    0.31442    0.78958   1.00
H2       0.18617    0.39564    0.79924   1.00
C5       0.61990    0.48900    0.82708   1.00
H2       0.67128    0.49528    0.82977   1.00
H2       0.62684    0.54119    0.82591   1.00
C5       0.58844    0.44903    0.80737   1.00
H2       0.62536    0.47208    0.79468   1.00
C5       0.64457    0.39984    0.28990   1.00
H2       0.66358    0.36651    0.28397   1.00
H2       0.64696    0.39748    0.30669   1.00
C5       0.69128    0.47372    0.28237   1.00
H2       0.73790    0.50043    0.29194   1.00
H2       0.66339    0.50255    0.28288   1.00
O_3      0.29320    0.26485    0.29510   1.00
C4       0.35953    0.19256    0.28406   1.00
C3c      0.42823    0.23454    0.28947   1.00
H1       0.44188    0.24645    0.30526   1.00
C3d      0.34293    0.17687    0.26342   1.00
C3       0.48008    0.26253    0.27470   1.00
O2       0.54668    0.29617    0.28127   1.00
C3       0.39428    0.20571    0.24865   1.00
H1       0.37881    0.19418    0.23297   1.00
C2       0.46392    0.24887    0.25384   1.00
C5       0.24397    0.25809    0.28073   1.00
H2       0.19279    0.23927    0.28771   1.00
H2       0.23876    0.22219    0.26835   1.00
C5       0.26763    0.32813    0.27169   1.00
H2       0.31960    0.34777    0.26521   1.00
H2       0.27204    0.36338    0.28415   1.00
C5       0.21802    0.32496    0.25531   1.00
H2       0.16591    0.30494    0.26164   1.00
H2       0.21538    0.29164    0.24253   1.00
H2       0.23536    0.37685    0.24920   1.00
C5       0.25365    0.06977    0.25781   1.00
C5       0.57025    0.36677    0.28293   1.00
H2       0.25563    0.05292    0.27352   1.00
H2       0.28522    0.05679    0.24778   1.00
H2       0.53923    0.37586    0.29433   1.00
H2       0.56675    0.38967    0.26826   1.00
H2       0.70930    0.47443    0.26653   1.00
H2       0.13657    -0.05357   0.27235   1.00
H2       0.17530    -0.06776   0.25011   1.00
C2       0.19881    0.11221    0.32805   1.00
C3       0.23381    0.07683    0.32354   1.00
O2       0.20666    0.00944    0.32911   1.00
C3       0.22043    0.17574    0.31848   1.00
H1       0.19586    0.20491    0.32200   1.00
C3a      0.28774    0.10442    0.30936   1.00
H1       0.31144    0.07488    0.30521   1.00
C3b      0.27263    0.20198    0.30391   1.00
C4       0.30667    0.16625    0.29921   1.00
O_3      0.27566    0.14007    0.25718   1.00
C5       0.23994    0.00442    0.34657   1.00
H2       0.29573    0.02647    0.34383   1.00
C5       0.20788    -0.07152   0.35154   1.00
H2       0.23286    0.03143    0.35965   1.00
H2       0.23052    -0.09406   0.34131   1.00
H2       0.15271    -0.09635   0.34762   1.00
C5       0.21721    -0.08481   0.37393   1.00
H2       0.27214    -0.05532   0.37801   1.00
H2       0.19841    -0.13997   0.37655   1.00
H2       0.18742    -0.07029   0.38428   1.00
C5       0.18007    0.03152    0.25048   1.00
H2       0.17963    0.03931    0.23381   1.00
H2       0.15223    0.05506    0.25766   1.00
C5       0.14472    -0.04495   0.25567   1.00
H2       0.09383    -0.07232   0.24828   1.00
C5       0.59686    0.36955    0.28412   1.00
H2       0.57509    0.37727    0.26995   1.00
H2       0.57069    0.37969    0.29675   1.00
C5       0.58209    0.29508    0.28505   1.00
H2       0.52935    0.26028    0.29060   1.00
H2       0.61902    0.29150    0.29540   1.00
O_3      0.90908    0.63578    0.31714   1.00
C4       0.83356    0.64086    0.28394   1.00
C3c      0.76856    0.58282    0.28565   1.00
H1       0.73660    0.57771    0.29848   1.00
C3d      0.87401    0.64698    0.26696   1.00
C3       0.74417    0.53024    0.27111   1.00
O2       0.67713    0.47917    0.27247   1.00
C3       0.85039    0.59412    0.25265   1.00
H1       0.88419    0.59998    0.24027   1.00
C2       0.78509    0.53473    0.25427   1.00
C5       0.97727    0.65659    0.31200   1.00
H2       1.01449    0.69850    0.32197   1.00
H2       0.98843    0.67444    0.29595   1.00
C5       0.98706    0.59535    0.31459   1.00
H2       0.94860    0.55283    0.30507   1.00
H2       0.97641    0.57836    0.33071   1.00
C5       1.05950    0.61293    0.30861   1.00
H2       1.09820    0.65568    0.31796   1.00
H2       1.06937    0.62762    0.29233   1.00
H2       1.06615    0.56801    0.31102   1.00
C5       0.94023    0.75616    0.25572   1.00
C5       0.67255    0.42394    0.28376   1.00
H2       0.91146    0.77496    0.26474   1.00
H2       0.91748    0.74235    0.24023   1.00
H2       0.69165    0.44072    0.29951   1.00
H2       0.70334    0.40274    0.27697   1.00
H2       0.58546    0.27615    0.26967   1.00
H2       1.00242    0.90150    0.26184   1.00
H2       0.98863    0.87762    0.23521   1.00
C2       0.91364    0.79878    0.32881   1.00
C3       0.87285    0.80050    0.31289   1.00
O2       0.87221    0.85980    0.30858   1.00
C3       0.92422    0.74236    0.33004   1.00
H1       0.95372    0.73865    0.34235   1.00
C3a      0.84537    0.74746    0.29842   1.00
H1       0.81753    0.75147    0.28567   1.00
C3b      0.89865    0.69081    0.31527   1.00
C4       0.85899    0.69312    0.29927   1.00
O_3      0.94030    0.70056    0.26535   1.00
C5       0.81254    0.85630    0.31640   1.00
H2       0.76577    0.81252    0.30975   1.00
C5       0.81512    0.92310    0.31072   1.00
H2       0.81029    0.85068    0.33322   1.00
H2       0.79886    0.91969    0.29462   1.00
H2       0.86950    0.96439    0.31140   1.00
C5       0.77075    0.93986    0.32465   1.00
H2       0.71784    0.89586    0.32503   1.00
H2       0.76937    0.98552    0.31903   1.00
H2       0.79172    0.95200    0.34041   1.00
C5       1.01405    0.81321    0.25395   1.00
H2       1.03973    0.79875    0.24216   1.00
H2       1.04015    0.81684    0.26861   1.00
C5       1.01954    0.88214    0.24885   1.00
H2       1.07347    0.92081    0.24560   1.00
C5       0.76154    0.39621    0.28552   1.00
H2       0.79229    0.42045    0.27171   1.00
H2       0.79603    0.42186    0.29857   1.00
C5       0.69985    0.40796    0.28615   1.00
H2       0.71520    0.45960    0.29218   1.00
H2       0.65896    0.36889    0.29596   1.00
O_3      0.72464    0.08526    0.31604   1.00
C4       0.80733    0.16648    0.28395   1.00
C3c      0.81137    0.23008    0.28615   1.00
H1       0.83592    0.26095    0.29937   1.00
C3d      0.77600    0.12749    0.26646   1.00
C3       0.78317    0.25442    0.27159   1.00
O2       0.79636    0.32045    0.27352   1.00
C3       0.74672    0.15100    0.25213   1.00
H1       0.72110    0.11824    0.23934   1.00
C2       0.74970    0.21486    0.25424   1.00
C5       0.67985    0.01720    0.31012   1.00
H2       0.68516    -0.02015   0.31986   1.00
H2       0.68900    0.00849    0.29405   1.00
C5       0.60749    0.00425    0.31216   1.00
H2       0.60273    0.04278    0.30288   1.00
H2       0.59873    0.01246    0.32829   1.00
C5       0.55536    -0.06820   0.30531   1.00
H2       0.56015    -0.10694   0.31441   1.00
H2       0.56257    -0.07569   0.28900   1.00
H2       0.50274    -0.07721   0.30732   1.00
C5       0.82405    0.06599    0.25507   1.00
C5       0.74318    0.32139    0.28449   1.00
H2       0.87030    0.09508    0.26461   1.00
H2       0.83391    0.09044    0.23981   1.00
H2       0.73987    0.30075    0.30008   1.00
H2       0.69224    0.28986    0.27714   1.00
H2       0.67898    0.40553    0.27061   1.00
H2       0.91097    0.00810    0.26132   1.00
H2       0.90307    0.02430    0.23474   1.00
C2       0.88524    0.08628    0.32876   1.00
C3       0.92864    0.12986    0.31342   1.00
O2       0.99028    0.13360    0.30952   1.00
C3       0.81717    0.07289    0.32946   1.00
H1       0.78318    0.04117    0.34132   1.00
C3a      0.90297    0.15733    0.29898   1.00
H1       0.93571    0.18742    0.28665   1.00
C3b      0.79121    0.09851    0.31470   1.00
C4       0.83411    0.14097    0.29927   1.00
O_3      0.76613    0.06237    0.26432   1.00
C5       1.04410    0.19339    0.31813   1.00
H2       1.04584    0.24002    0.31183   1.00
C5       1.11040    0.19433    0.31288   1.00
H2       1.03866    0.19346    0.33493   1.00
H2       1.12463    0.21269    0.29699   1.00
H2       1.09937    0.14056    0.31310   1.00
C5       1.16927    0.23868    0.32752   1.00
H2       1.17599    0.29071    0.32832   1.00
H2       1.21787    0.24273    0.32223   1.00
H2       1.15940    0.21594    0.34306   1.00
C5       0.81039    -0.00665   0.25268   1.00
H2       0.77187    -0.03208   0.24045   1.00
H2       0.78693    -0.03486   0.26699   1.00
C5       0.87596    -0.00867   0.24798   1.00
H2       0.86312    -0.06163   0.24426   1.00
C5       0.84844    0.64815    0.69731   1.00
H2       0.86543    0.60988    0.69748   1.00
H2       0.89577    0.69877    0.69734   1.00
C5       0.80655    0.63915    0.67785   1.00
H2       0.84082    0.66442    0.66468   1.00
H2       0.77313    0.66163    0.68007   1.00
O_3      0.75115    0.72566    0.78913   1.00
C4       0.80709    0.64005    0.78419   1.00
C3c      0.83287    0.65125    0.76433   1.00
H1       0.87459    0.70081    0.76012   1.00
C3d      0.75336    0.57482    0.78944   1.00
C3       0.80488    0.59940    0.74956   1.00
O2       0.83804    0.61154    0.73122   1.00
C3       0.72452    0.52347    0.77467   1.00
H1       0.68182    0.47499    0.77921   1.00
C2       0.74949    0.53414    0.75445   1.00
C5       0.68959    0.69435    0.80024   1.00
H2       0.69134    0.72540    0.81359   1.00
H2       0.67745    0.64291    0.80578   1.00
C5       0.63314    0.68671    0.78613   1.00
H2       0.63265    0.65732    0.77251   1.00
H2       0.64548    0.73840    0.78085   1.00
C5       0.56371    0.65073    0.79683   1.00
H2       0.56399    0.67956    0.81052   1.00
H2       0.55027    0.59823    0.80148   1.00
H2       0.52333    0.64696    0.78642   1.00
C5       0.75810    0.54341    0.82201   1.00
C5       0.80947    0.63753    0.71721   1.00
H2       0.81183    0.58492    0.82396   1.00
H2       0.75801    0.49644    0.81684   1.00
H2       0.81604    0.68701    0.72277   1.00
H2       0.75364    0.60221    0.71482   1.00
H2       0.77443    0.58410    0.67373   1.00
H2       0.81098    0.57744    0.86281   1.00
H2       0.78348    0.48954    0.85612   1.00
C2       0.88488    0.79775    0.82913   1.00
C3       0.91605    0.75780    0.82619   1.00
O2       0.95961    0.75686    0.84065   1.00
C3       0.83015    0.78651    0.81628   1.00
H1       0.80636    0.81743    0.81780   1.00
C3a      0.89109    0.70697    0.81104   1.00
H1       0.91296    0.67423    0.80974   1.00
C3b      0.80405    0.73448    0.80167   1.00
C4       0.83441    0.69410    0.79897   1.00
O_3      0.72277    0.56263    0.80833   1.00
C5       1.02799    0.79827    0.83448   1.00
H2       1.03799    0.78027    0.81980   1.00
C5       1.07278    0.79360    0.85107   1.00
H2       1.04086    0.85237    0.83269   1.00
H2       1.07337    0.74510    0.84902   1.00
H2       1.04736    0.78953    0.86589   1.00
C5       1.14604    0.85498    0.85109   1.00
H2       1.16869    0.86151    0.83573   1.00
H2       1.17851    0.84703    0.86218   1.00
H2       1.14696    0.90297    0.85569   1.00
C5       0.72199    0.52934    0.84240   1.00
H2       0.67254    0.48065    0.84127   1.00
H2       0.70971    0.57044    0.84538   1.00
C5       0.76583    0.52620    0.85976   1.00
H2       0.73535    0.50889    0.87395   1.00
C5       0.59474    0.43456    0.77252   1.00
H2       0.63221    0.41656    0.77303   1.00
H2       0.59359    0.45282    0.78808   1.00
C5       0.61882    0.49367    0.75709   1.00
H2       0.65778    0.54274    0.76398   1.00
H2       0.57471    0.49869    0.75194   1.00
O_3      0.25053    0.19094    0.78021   1.00
C4       0.35983    0.16584    0.78416   1.00
C3c      0.41866    0.23014    0.78613   1.00
H1       0.42457    0.26139    0.79922   1.00
C3d      0.35357    0.12551    0.76714   1.00
C3       0.47011    0.25553    0.77122   1.00
O2       0.52975    0.31502    0.77536   1.00
C3       0.40409    0.15118    0.75207   1.00
H1       0.39593    0.11942    0.73894   1.00
C2       0.46356    0.21641    0.75371   1.00
C5       0.20154    0.14755    0.76592   1.00
H2       0.14923    0.11948    0.77251   1.00
H2       0.21441    0.10936    0.75985   1.00
C5       0.20144    0.19172    0.74859   1.00
H2       0.25414    0.22123    0.74238   1.00
H2       0.18791    0.22922    0.75480   1.00
C5       0.15107    0.14813    0.73196   1.00
H2       0.09841    0.11815    0.73809   1.00
H2       0.16590    0.11229    0.72526   1.00
H2       0.15061    0.18141    0.71963   1.00
C5       0.29895    0.01129    0.77362   1.00
C5       0.52619    0.37132    0.76756   1.00
H2       0.30377    0.01927    0.79031   1.00
H2       0.34328    0.00718    0.76804   1.00
H2       0.48374    0.37481    0.77497   1.00
H2       0.51678    0.36747    0.75083   1.00
H2       0.64362    0.48512    0.74362   1.00
H2       0.21370    -0.10377   0.79926   1.00
H2       0.27025    -0.11873   0.78323   1.00
C2       0.19816    0.08905    0.82782   1.00
C3       0.25428    0.07895    0.83068   1.00
O2       0.25030    0.03093    0.84434   1.00
C3       0.19865    0.12768    0.81088   1.00
H1       0.15731    0.13782    0.80856   1.00
C3a      0.30810    0.10575    0.81646   1.00
H1       0.34878    0.09428    0.81823   1.00
C3b      0.25118    0.15239    0.79643   1.00
C4       0.30641    0.14141    0.79912   1.00
O_3      0.29441    0.06413    0.76372   1.00
C5       0.28523    0.06294    0.86237   1.00
H2       0.34018    0.09989    0.85934   1.00
C5       0.27945    0.00667    0.87651   1.00
H2       0.26193    0.09064    0.86980   1.00
H2       0.31773    -0.00774   0.87173   1.00
H2       0.22832    -0.03905   0.87400   1.00
C5       0.28920    0.02773    0.89904   1.00
H2       0.33804    0.07637    0.90100   1.00
H2       0.29039    -0.01211   0.90864   1.00
H2       0.24614    0.03396    0.90476   1.00
C5       0.23353    -0.05517   0.76913   1.00
H2       0.23458    -0.06905   0.75298   1.00
H2       0.18980    -0.04599   0.77076   1.00
C5       0.22418    -0.11309   0.78339   1.00
H2       0.18000    -0.16217   0.77834   1.00
C5       0.57580    0.18722    0.77791   1.00
H2       0.59909    0.24349    0.77703   1.00
H2       0.56157    0.17363    0.79406   1.00
C5       0.51163    0.15291    0.76427   1.00
H2       0.46691    0.15023    0.77218   1.00
H2       0.49967    0.10037    0.76019   1.00
O_3      0.79418    0.05461    0.78324   1.00
C4       0.83424    0.19398    0.78414   1.00
C3c      0.77423    0.19653    0.78732   1.00
H1       0.74641    0.17754    0.80137   1.00
C3d      0.87026    0.21988    0.76585   1.00
C3       0.74868    0.22251    0.77244   1.00
O2       0.69452    0.23105    0.77760   1.00
C3       0.84426    0.24459    0.75084   1.00
H1       0.87235    0.26167    0.73677   1.00
C2       0.78325    0.24685    0.75372   1.00
C5       0.82942    0.03928    0.76838   1.00
H2       0.85499    0.01242    0.77491   1.00
H2       0.86893    0.08654    0.76069   1.00
C5       0.77753    -0.00709   0.75277   1.00
H2       0.75062    0.01897    0.74666   1.00
H2       0.73871    -0.05436   0.76058   1.00
C5       0.81206    -0.02437   0.73560   1.00
H2       0.83943    -0.04998   0.74161   1.00
H2       0.84913    0.02257    0.72734   1.00
H2       0.77316    -0.05950   0.72458   1.00
C5       0.98577    0.27072    0.76915   1.00
C5       0.63261    0.17259    0.77197   1.00
H2       0.98336    0.27332    0.78596   1.00
H2       0.99332    0.31947    0.76260   1.00
H2       0.62651    0.12694    0.78029   1.00
H2       0.63016    0.16131    0.75537   1.00
H2       0.51906    0.18293    0.75008   1.00
H2       1.10486    0.29587    0.79207   1.00
H2       1.12180    0.36445    0.77450   1.00
C2       0.91034    0.10858    0.82784   1.00
C3       0.92825    0.17778    0.82923   1.00
O2       0.98253    0.22236    0.84113   1.00
C3       0.86446    0.06811    0.81241   1.00
H1       0.84836    0.01454    0.81126   1.00
C3a      0.90172    0.20515    0.81505   1.00
H1       0.91896    0.25910    0.81560   1.00
C3b      0.83989    0.09599    0.79793   1.00
C4       0.85856    0.16504    0.79914   1.00
O_3      0.92670    0.21384    0.76134   1.00
C5       0.95881    0.23461    0.85955   1.00
H2       0.92540    0.25705    0.85685   1.00
C5       1.02167    0.28512    0.87166   1.00
H2       0.92955    0.18657    0.86841   1.00
H2       1.03959    0.33732    0.86565   1.00
H2       1.06291    0.27321    0.86847   1.00
C5       1.00802    0.28245    0.89465   1.00
H2       0.96327    0.28908    0.89744   1.00
H2       1.05300    0.32364    0.90271   1.00
H2       0.99842    0.23311    0.90140   1.00
C5       1.04646    0.26252    0.76351   1.00
H2       1.05589    0.27173    0.74693   1.00
H2       1.03238    0.20851    0.76631   1.00
C5       1.11068    0.31084    0.77574   1.00
H2       1.15541    0.30860    0.76978   1.00
C5       -0.04052   0.35342    0.46121   1.00
H2       -0.05171   0.38925    0.46958   1.00
H2       0.01536    0.37443    0.46260   1.00
C5       -0.07976   0.28194    0.47108   1.00
H2       -0.05216   0.27897    0.48466   1.00
H2       -0.08580   0.24225    0.45998   1.00
O_3      -0.00907   0.38607    0.35621   1.00
C4       -0.02619   0.47410    0.38260   1.00
C3c      -0.01470   0.45777    0.40221   1.00
H1       0.03520    0.46620    0.40625   1.00
C3d      -0.09133   0.46364    0.37774   1.00
C3       -0.06723   0.42957    0.41677   1.00
O2       -0.05013   0.42271    0.43631   1.00
C3       -0.14408   0.43435    0.39207   1.00
H1       -0.19380   0.42503    0.38742   1.00
C2       -0.13353   0.41684    0.41190   1.00
C5       -0.05707   0.36172    0.34025   1.00
H2       -0.03219   0.37213    0.32506   1.00
H2       -0.09000   0.38542    0.34073   1.00
C5       -0.10144   0.28505    0.34283   1.00
H2       -0.12479   0.27457    0.35823   1.00
H2       -0.06813   0.26187    0.34213   1.00
C5       -0.15685   0.25463    0.32644   1.00
H2       -0.13390   0.26532    0.31101   1.00
H2       -0.19157   0.27600    0.32757   1.00
H2       -0.18780   0.19838    0.32830   1.00
C5       -0.08982   0.54266    0.35596   1.00
C5       -0.05943   0.35667    0.43910   1.00
H2       -0.03429   0.57791    0.35820   1.00
H2       -0.11851   0.55657    0.36690   1.00
H2       -0.02535   0.34856    0.42865   1.00
H2       -0.11298   0.31552    0.43597   1.00
H2       -0.13121   0.27053    0.47648   1.00
H2       -0.01966   0.65099    0.32679   1.00
H2       -0.08790   0.65574    0.33982   1.00
C2       0.12927    0.55277    0.33697   1.00
C3       0.12394    0.59764    0.35074   1.00
O2       0.15616    0.66665    0.34674   1.00
C3       0.08454    0.48185    0.33933   1.00
H1       0.08848    0.44607    0.32937   1.00
C3a      0.07356    0.57119    0.36602   1.00
H1       0.06758    0.60639    0.37570   1.00
C3b      0.03309    0.45585    0.35413   1.00
C4       0.02716    0.50057    0.36760   1.00
O_3      -0.10668   0.47401    0.35821   1.00
C5       0.21621    0.70153    0.35841   1.00
H2       0.20481    0.69368    0.37499   1.00
C5       0.24814    0.77743    0.35339   1.00
H2       0.25291    0.68399    0.35456   1.00
H2       0.22055    0.79838    0.36208   1.00
H2       0.23831    0.78146    0.33704   1.00
C5       0.32521    0.81836    0.35796   1.00
H2       0.33451    0.80942    0.37392   1.00
H2       0.34536    0.87396    0.35575   1.00
H2       0.35466    0.80373    0.34750   1.00
C5       -0.10871   0.55132    0.33445   1.00
H2       -0.16532   0.52528    0.33332   1.00
H2       -0.09164   0.52434    0.32392   1.00
C5       -0.07612   0.62692    0.32841   1.00
H2       -0.09657   0.63146    0.31353   1.00
C5       0.38631    1.04683    0.45914   1.00
H2       0.43129    1.05570    0.46823   1.00
H2       0.34913    0.99141    0.46037   1.00
C5       0.35580    1.08893    0.46812   1.00
H2       0.32258    1.06230    0.48137   1.00
H2       0.32516    1.09701    0.45640   1.00
O_3      0.40127    1.01444    0.35455   1.00
C4       0.50028    1.02616    0.38261   1.00
C3c      0.46974    1.01592    0.40180   1.00
H1       0.42611    0.96699    0.40551   1.00
C3d      0.55768    1.08998    0.37819   1.00
C3       0.49414    1.06850    0.41634   1.00
O2       0.46704    1.05228    0.43558   1.00
C3       0.58129    1.14284    0.39249   1.00
H1       0.62396    1.19163    0.38815   1.00
C2       0.55055    1.13358    0.41189   1.00
C5       0.42928    1.06240    0.33864   1.00
H2       0.41610    1.03766    0.32342   1.00
H2       0.48598    1.09305    0.33985   1.00
C5       0.40009    1.10977    0.34030   1.00
H2       0.41160    1.13303    0.35571   1.00
H2       0.34354    1.07873    0.33888   1.00
C5       0.42987    1.16526    0.32392   1.00
H2       0.41898    1.14237    0.30849   1.00
H2       0.48605    1.19777    0.32575   1.00
H2       0.40682    1.19846    0.32509   1.00
C5       0.63599    1.08410    0.35781   1.00
C5       0.41214    1.06500    0.43730   1.00
H2       0.61285    1.02820    0.36014   1.00
H2       0.67728    1.11117    0.36925   1.00
H2       0.37086    1.03236    0.42640   1.00
H2       0.42765    1.11930    0.43396   1.00
H2       0.39673    1.13952    0.47380   1.00
H2       0.67336    1.00991    0.32991   1.00
H2       0.74606    1.07591    0.34365   1.00
C2       0.42380    0.87081    0.33695   1.00
C3       0.47074    0.87348    0.35153   1.00
O2       0.50518    0.83835    0.34845   1.00
C3       0.40059    0.91820    0.33848   1.00
H1       0.36333    0.91637    0.32788   1.00
C3a      0.49451    0.92388    0.36681   1.00
H1       0.53334    0.92772    0.37715   1.00
C3b      0.42597    0.96961    0.35330   1.00
C4       0.47342    0.97287    0.36759   1.00
O_3      0.58639    1.10430    0.35901   1.00
C5       0.47565    0.77809    0.36014   1.00
H2       0.47728    0.78960    0.37666   1.00
C5       0.51723    0.74285    0.35616   1.00
H2       0.42157    0.74344    0.35564   1.00
H2       0.56456    0.76847    0.36546   1.00
H2       0.53365    0.75217    0.33999   1.00
C5       0.47715    0.66573    0.36070   1.00
H2       0.45658    0.65721    0.37640   1.00
H2       0.51071    0.64307    0.35928   1.00
H2       0.43430    0.63796    0.34973   1.00
C5       0.66696    1.10194    0.33665   1.00
H2       0.69997    1.15836    0.33561   1.00
H2       0.62484    1.08687    0.32550   1.00
C5       0.70771    1.06607    0.33163   1.00
H2       0.73531    1.08567    0.31705   1.00
C5       0.66005    0.61344    0.45922   1.00
H2       0.62394    0.56838    0.46828   1.00
H2       0.64170    0.65053    0.46045   1.00
C5       0.73262    0.64402    0.46822   1.00
H2       0.73908    0.67714    0.48149   1.00
H2       0.77138    0.67476    0.45652   1.00
O_3      0.61322    0.59895    0.35461   1.00
C4       0.52589    0.49972    0.38261   1.00
C3c      0.54605    0.53017    0.40181   1.00
H1       0.54065    0.57372    0.40554   1.00
C3d      0.53245    0.44241    0.37817   1.00
C3       0.57423    0.50577    0.41636   1.00
O2       0.58497    0.53277    0.43560   1.00
C3       0.56170    0.41880    0.39248   1.00
H1       0.56793    0.37621    0.38812   1.00
C2       0.58304    0.44945    0.41189   1.00
C5       0.63332    0.57109    0.33870   1.00
H2       0.62181    0.58432    0.32347   1.00
H2       0.60735    0.51439    0.33988   1.00
C5       0.70989    0.60040    0.34038   1.00
H2       0.72159    0.58884    0.35580   1.00
H2       0.73532    0.65695    0.33899   1.00
C5       0.73576    0.57078    0.32400   1.00
H2       0.72382    0.58172    0.30857   1.00
H2       0.71218    0.51460    0.32581   1.00
H2       0.79202    0.59391    0.32520   1.00
C5       0.44843    0.36412    0.35774   1.00
C5       0.65254    0.58774    0.43736   1.00
H2       0.41559    0.38716    0.36007   1.00
H2       0.43422    0.32278    0.36916   1.00
H2       0.66117    0.62905    0.42648   1.00
H2       0.69141    0.57233    0.43403   1.00
H2       0.74234    0.60311    0.47390   1.00
H2       0.33699    0.32672    0.32980   1.00
H2       0.33035    0.25400    0.34352   1.00
C2       0.44702    0.57621    0.33695   1.00
C3       0.40274    0.52915    0.35150   1.00
O2       0.33317    0.49462    0.34839   1.00
C3       0.51765    0.59953    0.33851   1.00
H1       0.55309    0.63687    0.32793   1.00
C3a      0.42935    0.50537    0.36678   1.00
H1       0.39435    0.46646    0.37710   1.00
C3b      0.54367    0.57414    0.35333   1.00
C4       0.49946    0.52658    0.36759   1.00
O_3      0.51820    0.41380    0.35898   1.00
C5       0.30230    0.52400    0.36008   1.00
H2       0.31211    0.52231    0.37661   1.00
C5       0.22551    0.48234    0.35606   1.00
H2       0.32167    0.57810    0.35560   1.00
H2       0.20382    0.43496    0.36534   1.00
H2       0.21851    0.46600    0.33988   1.00
C5       0.18833    0.52228    0.36061   1.00
H2       0.20027    0.54278    0.37631   1.00
H2       0.13212    0.48865    0.35916   1.00
H2       0.20339    0.56517    0.34965   1.00
C5       0.43546    0.33326    0.33657   1.00
H2       0.45897    0.30035    0.33552   1.00
H2       0.46251    0.37545    0.32544   1.00
C5       0.35887    0.29243    0.33152   1.00
H2       0.35100    0.26492    0.31692   1.00
C5       0.31481    0.37454    0.29433   1.00
H2       0.36331    0.42191    0.29081   1.00
H2       0.32455    0.33185    0.29138   1.00
C5       0.29625    0.37514    0.31689   1.00
H2       0.32509    0.35864    0.32683   1.00
H2       0.24063    0.34028    0.31922   1.00
O_3      0.06117    0.24826    0.22048   1.00
C4       0.19381    0.36007    0.21576   1.00
C3c      0.23133    0.35767    0.23238   1.00
H1       0.24003    0.31512    0.23401   1.00
C3d      0.18389    0.41646    0.21377   1.00
C3       0.25730    0.40924    0.24726   1.00
O2       0.30043    0.40770    0.26169   1.00
C3       0.20856    0.46723    0.22876   1.00
H1       0.19762    0.50825    0.22696   1.00
C2       0.24597    0.46522    0.24578   1.00
C5       0.01017    0.26393    0.21514   1.00
H2       -0.02566   0.22814    0.20353   1.00
H2       0.03309    0.31686    0.20905   1.00
C5       -0.03010   0.25812    0.23420   1.00
H2       0.00599    0.29246    0.24599   1.00
H2       -0.05327   0.20493    0.24004   1.00
C5       -0.08534   0.27677    0.22988   1.00
H2       -0.12128   0.24299    0.21802   1.00
H2       -0.06209   0.33064    0.22473   1.00
H2       -0.11520   0.27078    0.24389   1.00
C5       0.18273    0.44836    0.18102   1.00
C5       0.26278    0.37251    0.27909   1.00
H2       0.20471    0.41738    0.17520   1.00
H2       0.22518    0.50123    0.18402   1.00
H2       0.22483    0.31867    0.27514   1.00
H2       0.23406    0.39609    0.28581   1.00
H2       0.31015    0.42766    0.32194   1.00
H2       0.17242    0.42026    0.13804   1.00
H2       0.21996    0.51094    0.14370   1.00
C2       0.10703    0.20112    0.17128   1.00
C3       0.17492    0.25484    0.16915   1.00
O2       0.20803    0.26644    0.15076   1.00
C3       0.07027    0.19965    0.18881   1.00
H1       0.01881    0.15828    0.19115   1.00
C3a      0.20366    0.30620    0.18411   1.00
H1       0.25432    0.34902    0.18169   1.00
C3b      0.09824    0.25194    0.20334   1.00
C4       0.16537    0.30587    0.20105   1.00
O_3      0.14299    0.41871    0.19855   1.00
C5       0.25345    0.24084    0.15111   1.00
H2       0.29259    0.26567    0.16328   1.00
C5       0.28879    0.25664    0.13042   1.00
H2       0.22555    0.18465    0.15366   1.00
H2       0.33019    0.31099    0.13031   1.00
H2       0.25080    0.25191    0.11885   1.00
C5       0.31747    0.20944    0.12517   1.00
H2       0.35106    0.21072    0.13765   1.00
H2       0.34764    0.22609    0.11087   1.00
H2       0.27563    0.15576    0.12267   1.00
C5       0.13603    0.45093    0.16487   1.00
H2       0.12355    0.49101    0.16917   1.00
H2       0.08723    0.40134    0.16502   1.00
C5       0.16840    0.46466    0.14361   1.00
H2       0.13622    0.47326    0.13263   1.00
C5       0.38424    0.57952    0.22069   1.00
H2       0.39502    0.56519    0.23577   1.00
H2       0.39850    0.55248    0.20937   1.00
C5       0.30736    0.55578    0.21906   1.00
H2       0.27739    0.50069    0.21507   1.00
H2       0.29897    0.58593    0.20725   1.00
O_3      0.62627    0.89159    0.17999   1.00
C4       0.64090    0.83368    0.21607   1.00
C3c      0.58786    0.76550    0.21597   1.00
H1       0.58672    0.73104    0.20443   1.00
C3d      0.64196    0.87749    0.23142   1.00
C3       0.53517    0.74094    0.23049   1.00
O2       0.48977    0.67191    0.23094   1.00
C3       0.58888    0.85353    0.24566   1.00
H1       0.59058    0.88962    0.25670   1.00
C2       0.53445    0.78492    0.24565   1.00
C5       0.63946    0.95897    0.18271   1.00
H2       0.67915    0.99549    0.17204   1.00
H2       0.65671    0.97698    0.19851   1.00
C5       0.57345    0.95908    0.17868   1.00
H2       0.53327    0.92118    0.18894   1.00
H2       0.55705    0.94163    0.16281   1.00
C5       0.58267    1.03024    0.18202   1.00
H2       0.62305    1.06844    0.17192   1.00
H2       0.59673    1.04672    0.19805   1.00
H2       0.53432    1.02966    0.17858   1.00
C5       0.74883    0.95671    0.24182   1.00
C5       0.43207    0.65664    0.21896   1.00
H2       0.77252    0.92962    0.23433   1.00
H2       0.73693    0.93909    0.25788   1.00
H2       0.44758    0.67121    0.20284   1.00
H2       0.40560    0.68453    0.22410   1.00
H2       0.28671    0.56155    0.23388   1.00
H2       0.89469    1.03116    0.23576   1.00
H2       0.87084    1.02421    0.26235   1.00
C2       0.79828    0.91333    0.17103   1.00
C3       0.80513    0.88125    0.18851   1.00
O2       0.86789    0.88990    0.19385   1.00
C3       0.73725    0.91527    0.16841   1.00
H1       0.72969    0.93788    0.15494   1.00
C3a      0.75235    0.85375    0.20307   1.00
H1       0.76001    0.83285    0.21691   1.00
C3b      0.68580    0.88983    0.18321   1.00
C4       0.69313    0.85889    0.20073   1.00
O_3      0.69012    0.94624    0.23128   1.00
C5       0.87195    0.83177    0.18841   1.00
H2       0.83155    0.78507    0.19614   1.00
C5       0.94222    0.84483    0.19511   1.00
H2       0.86651    0.82332    0.17170   1.00
H2       0.94049    0.83476    0.21169   1.00
H2       0.97893    0.90021    0.19296   1.00
C5       0.96583    0.80143    0.18335   1.00
H2       0.92608    0.74670    0.18433   1.00
H2       1.01424    0.80804    0.18977   1.00
H2       0.97618    0.81711    0.16706   1.00
C5       0.79969    1.03292    0.24160   1.00
H2       0.78093    1.05866    0.25203   1.00
H2       0.80036    1.05258    0.22606   1.00
C5       0.87184    1.04876    0.24764   1.00
H2       0.90578    1.10470    0.24937   1.00
C5       0.39606    0.76130    0.21445   1.00
H2       0.42035    0.79208    0.22825   1.00
H2       0.42170    0.79575    0.20139   1.00
C5       0.40774    0.69957    0.21383   1.00
H2       0.45935    0.71487    0.20779   1.00
H2       0.36863    0.65867    0.20403   1.00
O_3      0.08514    0.72460    0.18398   1.00
C4       0.16648    0.80733    0.21605   1.00
C3c      0.23005    0.81131    0.21384   1.00
H1       0.26089    0.83581    0.20061   1.00
C3d      0.12752    0.77606    0.23355   1.00
C3       0.25439    0.78311    0.22840   1.00
O2       0.32039    0.79624    0.22646   1.00
C3       0.15103    0.74679    0.24788   1.00
H1       0.11830    0.72122    0.26068   1.00
C2       0.21486    0.74970    0.24576   1.00
C5       0.01708    0.67987    0.18992   1.00
H2       -0.02026   0.68519    0.18019   1.00
H2       0.00843    0.68907    0.20599   1.00
C5       0.00406    0.60748    0.18789   1.00
H2       0.04260    0.60270    0.19716   1.00
H2       0.01223    0.59867    0.17176   1.00
C5       -0.06838   0.55541    0.19477   1.00
H2       -0.10712   0.56022    0.18566   1.00
H2       -0.07582   0.56267    0.21107   1.00
H2       -0.07744   0.50276    0.19276   1.00
C5       0.06613    0.82422    0.24494   1.00
C5       0.32125    0.74300    0.21549   1.00
H2       0.09522    0.87045    0.23539   1.00
H2       0.09062    0.83411    0.26020   1.00
H2       0.30059    0.73967    0.19991   1.00
H2       0.28971    0.69209    0.22286   1.00
H2       0.40533    0.67873    0.22937   1.00
H2       0.00833    0.91123    0.23869   1.00
H2       0.02458    0.90337    0.26527   1.00
C2       0.08628    0.88525    0.17124   1.00
C3       0.12992    0.92865    0.18657   1.00
O2       0.13372    0.99034    0.19046   1.00
C3       0.07283    0.81716    0.17055   1.00
H1       0.04106    0.78315    0.15870   1.00
C3a      0.15738    0.90299    0.20101   1.00
H1       0.18753    0.93574    0.21333   1.00
C3b      0.09845    0.79119    0.18531   1.00
C4       0.14097    0.83410    0.20073   1.00
O_3      0.06243    0.76626    0.23571   1.00
C5       0.19352    1.04410    0.18183   1.00
H2       0.24014    1.04582    0.18813   1.00
C5       0.19453    1.11045    0.18708   1.00
H2       0.19353    1.03862    0.16503   1.00
H2       0.21294    1.12471    0.20296   1.00
H2       0.14077    1.09946    0.18687   1.00
C5       0.23888    1.16927    0.17242   1.00
H2       0.29089    1.17594    0.17161   1.00
H2       0.24299    1.21790    0.17770   1.00
H2       0.21609    1.15937    0.15688   1.00
C5       -0.00648   0.81063    0.24735   1.00
H2       -0.03191   0.77215    0.25959   1.00
H2       -0.03475   0.78716    0.23304   1.00
C5       -0.00843   0.87624    0.25204   1.00
H2       -0.06137   0.86346    0.25577   1.00
C5       1.02284    0.59351    0.53289   1.00
H2       1.06394    0.64745    0.53451   1.00
H2       0.97413    0.59403    0.53389   1.00
C5       1.02907    0.56595    0.51199   1.00
H2       1.00581    0.58193    0.49986   1.00
H2       1.00300    0.50927    0.51237   1.00
O_3      0.93319    0.38621    0.61845   1.00
C4       1.02665    0.52725    0.61755   1.00
C3c      1.01740    0.55032    0.59869   1.00
H1       0.96939    0.54758    0.59529   1.00
C3d      1.08993    0.53217    0.62180   1.00
C3       1.06917    0.57624    0.58388   1.00
O2       1.05951    0.60545    0.56683   1.00
C3       1.14111    0.55674    0.60694   1.00
H1       1.18791    0.55730    0.61061   1.00
C2       1.13235    0.57959    0.58770   1.00
C5       0.96054    0.34861    0.62751   1.00
H2       0.92826    0.31599    0.64023   1.00
H2       1.01287    0.38313    0.63351   1.00
C5       0.96410    0.30281    0.61130   1.00
H2       0.99477    0.33523    0.59834   1.00
H2       0.91152    0.26815    0.60556   1.00
C5       0.99567    0.26169    0.61973   1.00
H2       0.96557    0.22954    0.63276   1.00
H2       1.04901    0.29621    0.62482   1.00
H2       0.99646    0.22742    0.60779   1.00
C5       1.12245    0.55524    0.65493   1.00
C5       1.03042    0.55629    0.55121   1.00
H2       1.08369    0.57035    0.65830   1.00
H2       1.17128    0.60180    0.65073   1.00
H2       0.97951    0.51389    0.55604   1.00
H2       1.06260    0.53330    0.54720   1.00
H2       1.08368    0.58682    0.50764   1.00
H2       1.09083    0.56258    0.69698   1.00
H2       1.17994    0.62045    0.69091   1.00
C2       0.86860    0.44086    0.66232   1.00
C3       0.91264    0.51214    0.66148   1.00
O2       0.91694    0.55271    0.67767   1.00
C3       0.87602    0.39982    0.64750   1.00
H1       0.84199    0.34527    0.64741   1.00
C3a      0.96361    0.54035    0.64639   1.00
H1       0.99938    0.59456    0.64666   1.00
C3b      0.92814    0.42780    0.63292   1.00
C4       0.97254    0.49855    0.63230   1.00
O_3      1.09984    0.50545    0.63951   1.00
C5       0.87958    0.58593    0.67359   1.00
H2       0.89928    0.61870    0.65978   1.00
C5       0.88781    0.63055    0.69201   1.00
H2       0.82449    0.54826    0.67129   1.00
H2       0.93824    0.67814    0.69096   1.00
H2       0.88977    0.60289    0.70574   1.00
C5       0.83004    0.64754    0.69389   1.00
H2       0.82531    0.67019    0.67946   1.00
H2       0.84076    0.68457    0.70641   1.00
H2       0.78023    0.60107    0.69755   1.00
C5       1.13384    0.52409    0.67395   1.00
H2       1.18039    0.51994    0.67171   1.00
H2       1.09014    0.47117    0.67558   1.00
C5       1.14040    0.56599    0.69307   1.00
H2       1.15569    0.54596    0.70622   1.00
C5       0.58126    -0.02670   0.53420   1.00
H2       0.59114    -0.06962   0.53637   1.00
H2       0.63159    0.02056    0.53567   1.00
C5       0.55124    -0.03122   0.51279   1.00
H2       0.59241    -0.00953   0.50117   1.00
H2       0.52298    -0.00273   0.51242   1.00
O_3      0.45956    0.07195    0.61687   1.00
C4       0.50055    -0.02667   0.61756   1.00
C3c      0.53520    -0.01899   0.59922   1.00
H1       0.58231    0.02778    0.59622   1.00
C3d      0.43975    -0.08839   0.62129   1.00
C3       0.50941    -0.07070   0.58439   1.00
O2       0.55017    -0.06296   0.56796   1.00
C3       0.41326    -0.13946   0.60639   1.00
H1       0.36524    -0.18492   0.60963   1.00
C2       0.44727    -0.13223   0.58766   1.00
C5       0.39369    0.04750    0.62501   1.00
H2       0.39330    0.08066    0.63744   1.00
H2       0.37258    -0.00524   0.63110   1.00
C5       0.34803    0.04660    0.60798   1.00
H2       0.34993    0.01501    0.59532   1.00
H2       0.36923    0.09958    0.60214   1.00
C5       0.27452    0.01825    0.61538   1.00
H2       0.27231    0.04927    0.62812   1.00
H2       0.25250    -0.03547   0.62056   1.00
H2       0.24226    0.01939    0.60285   1.00
C5       0.42384    -0.12124   0.65448   1.00
C5       0.53467    -0.03198   0.55178   1.00
H2       0.47776    -0.08445   0.65847   1.00
H2       0.41950    -0.17125   0.65063   1.00
H2       0.54508    0.01982    0.55634   1.00
H2       0.47995    -0.06194   0.54707   1.00
H2       0.51609    -0.08540   0.50829   1.00
H2       0.45716    -0.09094   0.69690   1.00
H2       0.42273    -0.18069   0.69101   1.00
C2       0.57230    0.13161    0.66225   1.00
C3       0.59635    0.08487    0.66224   1.00
O2       0.62888    0.07843    0.67908   1.00
C3       0.52709    0.12670    0.64666   1.00
H1       0.50915    0.16279    0.64594   1.00
C3a      0.57365    0.03381    0.64719   1.00
H1       0.58946    -0.00395   0.64807   1.00
C3b      0.50292    0.07453    0.63210   1.00
C4       0.52604    0.02747    0.63230   1.00
O_3      0.40106    -0.09650   0.63841   1.00
C5       0.70003    0.11285    0.67594   1.00
H2       0.71363    0.09188    0.66254   1.00
C5       0.73211    0.10237    0.69505   1.00
H2       0.72038    0.16844    0.67351   1.00
H2       0.72667    0.05075    0.69435   1.00
H2       0.70124    0.10201    0.70825   1.00
C5       0.80758    0.15751    0.69777   1.00
H2       0.83654    0.16083    0.68380   1.00
H2       0.83063    0.14503    0.71082   1.00
H2       0.81309    0.20846    0.70108   1.00
C5       0.37912    -0.13055   0.67281   1.00
H2       0.32767    -0.17551   0.67007   1.00
H2       0.37241    -0.08517   0.67393   1.00
C5       0.41019    -0.13926   0.69258   1.00
H2       0.37312    -0.15298   0.70522   1.00
C5       0.39253    0.41910    0.53415   1.00
H2       0.33969    0.40911    0.53630   1.00
H2       0.38956    0.36881    0.53561   1.00
C5       0.41811    0.44925    0.51276   1.00
H2       0.39876    0.40815    0.50112   1.00
H2       0.47486    0.47760    0.51241   1.00
O_3      0.61244    0.54067    0.61692   1.00
C4       0.47277    0.49945    0.61756   1.00
C3c      0.44594    0.46487    0.59920   1.00
H1       0.44569    0.41782    0.59619   1.00
C3d      0.47171    0.56016    0.62131   1.00
C3       0.42001    0.49067    0.58437   1.00
O2       0.38712    0.44997    0.56792   1.00
C3       0.44713    0.58666    0.60641   1.00
H1       0.44957    0.63462    0.60967   1.00
C2       0.42049    0.55273    0.58767   1.00
C5       0.65372    0.60652    0.62509   1.00
H2       0.68725    0.60691    0.63754   1.00
H2       0.62200    0.62752    0.63119   1.00
C5       0.69852    0.65231    0.60809   1.00
H2       0.66507    0.65041    0.59542   1.00
H2       0.73041    0.63122    0.60225   1.00
C5       0.74355    0.72579    0.61553   1.00
H2       0.77675    0.72800    0.62828   1.00
H2       0.71175    0.74771    0.62071   1.00
H2       0.77699    0.75816    0.60302   1.00
C5       0.45455    0.57585    0.65450   1.00
C5       0.43370    0.46563    0.55176   1.00
H2       0.43749    0.52194    0.65847   1.00
H2       0.40884    0.58012    0.65064   1.00
H2       0.47513    0.45529    0.55632   1.00
H2       0.45841    0.52037    0.54707   1.00
H2       0.39901    0.48435    0.50827   1.00
H2       0.45138    0.54233    0.69690   1.00
H2       0.39596    0.57665    0.69101   1.00
C2       0.55929    0.42770    0.66225   1.00
C3       0.48848    0.40354    0.66222   1.00
O2       0.44946    0.37088    0.67904   1.00
C3       0.59962    0.47303    0.64669   1.00
H1       0.65368    0.49106    0.64599   1.00
C3a      0.46013    0.42624    0.64716   1.00
H1       0.40652    0.41033    0.64802   1.00
C3b      0.57163    0.49720    0.63213   1.00
C4       0.50141    0.47396    0.63230   1.00
O_3      0.50216    0.59879    0.63845   1.00
C5       0.41284    0.29974    0.67586   1.00
H2       0.37833    0.28616    0.66244   1.00
C5       0.37020    0.26751    0.69494   1.00
H2       0.44817    0.27950    0.67343   1.00
H2       0.32397    0.27286    0.69423   1.00
H2       0.40062    0.29833    0.70817   1.00
C5       0.34999    0.19206    0.69763   1.00
H2       0.32445    0.16315    0.68365   1.00
H2       0.31440    0.16889    0.71066   1.00
H2       0.39547    0.18662    0.70095   1.00
C5       0.48981    0.62050    0.67285   1.00
H2       0.49622    0.67193    0.67013   1.00
H2       0.54194    0.62730    0.67400   1.00
C5       0.44996    0.58928    0.69260   1.00
H2       0.47319    0.62630    0.70526   1.00
C5       0.28947    -0.31688   0.12481   1.00
H2       0.25142    -0.31807   0.11395   1.00
H2       0.27072    -0.31400   0.14014   1.00
C5       0.29321    -0.38299   0.12263   1.00
H2       0.25096    -0.42572   0.13113   1.00
H2       0.34282    -0.37468   0.12856   1.00
O_3      0.58497    -0.00561   0.14108   1.00
C4       0.47303    -0.02592   0.11733   1.00
C3c      0.42004    -0.09187   0.12197   1.00
H1       0.39913    -0.10328   0.13714   1.00
C3d      0.49889    -0.01186   0.09739   1.00
C3       0.39391    -0.14418   0.10733   1.00
O2       0.33669    -0.20490   0.11228   1.00
C3       0.47388    -0.06417   0.08288   1.00
H1       0.49695    -0.05158   0.06800   1.00
C2       0.42081    -0.13134   0.08739   1.00
C5       0.64750    0.02969    0.13056   1.00
H2       0.68572    0.07603    0.13889   1.00
H2       0.64018    0.04570    0.11520   1.00
C5       0.67556    -0.01847   0.12830   1.00
H2       0.63657    -0.06560   0.12049   1.00
H2       0.68327    -0.03361   0.14372   1.00
C5       0.74263    0.01519    0.11633   1.00
H2       0.78165    0.06255    0.12397   1.00
H2       0.73451    0.02817    0.10069   1.00
H2       0.76312    -0.02023   0.11522   1.00
C5       0.53168    0.09598    0.08665   1.00
C5       0.35596    -0.25091   0.12014   1.00
H2       0.50472    0.10494    0.09933   1.00
H2       0.49675    0.07637    0.07331   1.00
H2       0.38651    -0.22979   0.13428   1.00
H2       0.38772    -0.26107   0.10924   1.00
H2       0.28740    -0.39973   0.10644   1.00
H2       0.56709    0.23502    0.09512   1.00
H2       0.53398    0.20810    0.06961   1.00
C2       0.55985    0.13318    0.16176   1.00
C3       0.50149    0.12160    0.15078   1.00
O2       0.48206    0.17043    0.15036   1.00
C3       0.58630    0.08909    0.15841   1.00
H1       0.62985    0.09550    0.16695   1.00
C3a      0.47226    0.06807    0.13649   1.00
H1       0.42999    0.06231    0.12738   1.00
C3b      0.55844    0.03729    0.14373   1.00
C4       0.50107    0.02650    0.13260   1.00
O_3      0.55446    0.05072    0.09244   1.00
C5       0.42673    0.15223    0.16364   1.00
H2       0.38186    0.10213    0.15934   1.00
C5       0.40759    0.20803    0.16205   1.00
H2       0.44117    0.14895    0.17960   1.00
H2       0.37640    0.19881    0.14811   1.00
H2       0.45567    0.25739    0.15974   1.00
C5       0.36905    0.21164    0.18087   1.00
H2       0.32418    0.16055    0.18388   1.00
H2       0.35104    0.24873    0.17844   1.00
H2       0.40276    0.22939    0.19454   1.00
C5       0.59424    0.16349    0.08100   1.00
H2       0.61431    0.15696    0.06625   1.00
H2       0.63450    0.17539    0.09258   1.00
C5       0.57820    0.22194    0.07979   1.00
H2       0.62286    0.26851    0.07361   1.00
C5       1.06230    0.37300    0.04588   1.00
H2       1.06637    0.41303    0.03531   1.00
H2       1.00831    0.33131    0.04515   1.00
C5       1.11042    0.34699    0.03878   1.00
H2       1.08645    0.30875    0.02641   1.00
H2       1.12247    0.32317    0.05171   1.00
O_3      1.02525    0.41555    0.14876   1.00
C4       1.02608    0.50021    0.11737   1.00
C3c      1.01913    0.46461    0.09926   1.00
H1       0.97280    0.41695    0.09641   1.00
C3d      1.08647    0.56271    0.12066   1.00
C3       1.07181    0.48916    0.08475   1.00
O2       1.05815    0.45600    0.06638   1.00
C3       1.13953    0.58664    0.10641   1.00
H1       1.18583    0.63359    0.10993   1.00
C2       1.13365    0.55090    0.08813   1.00
C5       1.07230    0.45239    0.16431   1.00
H2       1.04763    0.44186    0.17953   1.00
H2       1.09785    0.50842    0.16149   1.00
C5       1.12574    0.43053    0.16453   1.00
H2       1.14905    0.43926    0.14915   1.00
H2       1.09974    0.37465    0.16754   1.00
C5       1.18051    0.47008    0.18060   1.00
H2       1.15752    0.46198    0.19597   1.00
H2       1.20811    0.52568    0.17720   1.00
H2       1.21828    0.45236    0.18083   1.00
C5       1.07070    0.64110    0.13789   1.00
C5       1.07814    0.40602    0.06692   1.00
H2       1.01456    0.61205    0.13554   1.00
H2       1.09444    0.67920    0.12543   1.00
H2       1.04854    0.36708    0.07877   1.00
H2       1.13349    0.42811    0.07055   1.00
H2       1.15893    0.38942    0.03242   1.00
H2       0.98773    0.67545    0.16303   1.00
H2       1.04878    0.74676    0.14773   1.00
C2       0.87093    0.42443    0.16308   1.00
C3       0.86831    0.46381    0.14688   1.00
O2       0.82712    0.49249    0.14809   1.00
C3       0.92369    0.40817    0.16320   1.00
H1       0.92609    0.37665    0.17510   1.00
C3a      0.91876    0.48729    0.13163   1.00
H1       0.91829    0.52061    0.11996   1.00
C3b      0.97502    0.43341    0.14836   1.00
C4       0.97294    0.47343    0.13243   1.00
O_3      1.09793    0.59711    0.13888   1.00
C5       0.76724    0.45405    0.13659   1.00
H2       0.77936    0.45182    0.12029   1.00
C5       0.72508    0.48961    0.13843   1.00
H2       0.73712    0.40098    0.14252   1.00
H2       0.74653    0.53381    0.12783   1.00
H2       0.73277    0.51105    0.15404   1.00
C5       0.64860    0.44155    0.13415   1.00
H2       0.64224    0.41650    0.11918   1.00
H2       0.62068    0.47040    0.13394   1.00
H2       0.62432    0.40177    0.14621   1.00
C5       1.08560    0.67864    0.15806   1.00
H2       1.14112    0.71652    0.15878   1.00
H2       1.07461    0.64115    0.17047   1.00
C5       1.04285    0.71368    0.16094   1.00
H2       1.06007    0.74626    0.17473   1.00
C5       0.61308    0.65938    0.04068   1.00
H2       0.56793    0.62327    0.03165   1.00
H2       0.65007    0.64089    0.03944   1.00
C5       0.64375    0.73190    0.03163   1.00
H2       0.67675    0.73818    0.01834   1.00
H2       0.67465    0.77071    0.04330   1.00
O_3      0.59926    0.61327    0.14531   1.00
C4       0.49972    0.52589    0.11739   1.00
C3c      0.53004    0.54585    0.09816   1.00
H1       0.57349    0.54030    0.09443   1.00
C3d      0.44253    0.53264    0.12185   1.00
C3       0.50565    0.57404    0.08362   1.00
O2       0.53249    0.58459    0.06436   1.00
C3       0.41894    0.56190    0.10755   1.00
H1       0.37646    0.56829    0.11191   1.00
C2       0.44946    0.58305    0.08811   1.00
C5       0.57161    0.63359    0.16123   1.00
H2       0.58490    0.62213    0.17645   1.00
H2       0.51491    0.60773    0.16008   1.00
C5       0.60107    0.71017    0.15950   1.00
H2       0.58944    0.72181    0.14408   1.00
H2       0.65762    0.73549    0.16085   1.00
C5       0.57168    0.73627    0.17588   1.00
H2       0.58269    0.72440    0.19131   1.00
H2       0.51550    0.71279    0.17411   1.00
H2       0.59493    0.79254    0.17465   1.00
C5       0.36427    0.44887    0.14235   1.00
C5       0.58756    0.65208    0.06255   1.00
H2       0.38718    0.41591    0.14003   1.00
H2       0.32287    0.43467    0.13095   1.00
H2       0.62892    0.66069    0.07341   1.00
H2       0.57230    0.69107    0.06587   1.00
H2       0.60289    0.74170    0.02597   1.00
H2       0.32683    0.33758    0.17036   1.00
H2       0.25409    0.33103    0.15667   1.00
C2       0.57622    0.44703    0.16305   1.00
C3       0.52901    0.40271    0.14853   1.00
O2       0.49435    0.33317    0.15169   1.00
C3       0.59970    0.51768    0.16145   1.00
H1       0.63716    0.55314    0.17200   1.00
C3a      0.50522    0.42932    0.13326   1.00
H1       0.46618    0.39430    0.12297   1.00
C3b      0.57430    0.54370    0.14663   1.00
C4       0.52658    0.49946    0.13241   1.00
O_3      0.41407    0.51859    0.14106   1.00
C5       0.52353    0.30209    0.14000   1.00
H2       0.52174    0.31180    0.12347   1.00
C5       0.48174    0.22534    0.14407   1.00
H2       0.57763    0.32137    0.14445   1.00
H2       0.43430    0.20368    0.13482   1.00
H2       0.46552    0.21849    0.16026   1.00
C5       0.52149    0.18797    0.13952   1.00
H2       0.54188    0.19976    0.12380   1.00
H2       0.48777    0.13178    0.14101   1.00
H2       0.56445    0.20301    0.15045   1.00
C5       0.33358    0.43612    0.16354   1.00
H2       0.30078    0.45976    0.16459   1.00
H2       0.37587    0.46317    0.17464   1.00
C5       0.29263    0.35957    0.16864   1.00
H2       0.26525    0.35187    0.18325   1.00
C5       0.34709    0.64490    0.70788   1.00
H2       0.34219    0.60254    0.71756   1.00
H2       0.34808    0.62912    0.69199   1.00
C5       0.28480    0.65452    0.71129   1.00
H2       0.24023    0.61684    0.70226   1.00
H2       0.29755    0.70694    0.70676   1.00
O_3      0.67100    0.92714    0.69540   1.00
C4       0.64068    0.80630    0.71600   1.00
C3c      0.57304    0.75864    0.71087   1.00
H1       0.56028    0.74193    0.69532   1.00
C3d      0.65641    0.82666    0.73640   1.00
C3       0.52084    0.73258    0.72555   1.00
O2       0.45774    0.68009    0.71990   1.00
C3       0.60432    0.80180    0.75098   1.00
H1       0.61841    0.82072    0.76630   1.00
C2       0.53552    0.75413    0.74601   1.00
C5       0.71049    0.98613    0.70719   1.00
H2       0.75818    1.02368    0.69928   1.00
H2       0.72485    0.97295    0.72200   1.00
C5       0.66757    1.01934    0.71113   1.00
H2       0.61906    0.98120    0.71851   1.00
H2       0.65407    1.03286    0.69625   1.00
C5       0.70594    1.08283    0.72452   1.00
H2       0.75468    1.12094    0.71729   1.00
H2       0.71736    1.06904    0.73963   1.00
H2       0.67437    1.10726    0.72685   1.00
C5       0.76174    0.84769    0.74627   1.00
C5       0.41607    0.70661    0.71344   1.00
H2       0.76768    0.82208    0.73266   1.00
H2       0.73968    0.80969    0.75882   1.00
H2       0.43915    0.74011    0.69993   1.00
H2       0.40948    0.73780    0.72544   1.00
H2       0.26827    0.64584    0.72752   1.00
H2       0.89701    0.87351    0.73656   1.00
H2       0.86812    0.83491    0.76141   1.00
C2       0.80019    0.89316    0.67169   1.00
C3       0.78345    0.83062    0.68104   1.00
O2       0.82783    0.80562    0.68004   1.00
C3       0.76096    0.92403    0.67658   1.00
H1       0.77134    0.97100    0.66929   1.00
C3a      0.72979    0.80155    0.69529   1.00
H1       0.72015    0.75570    0.70317   1.00
C3b      0.70908    0.89612    0.69123   1.00
C4       0.69319    0.83450    0.70075   1.00
O_3      0.72111    0.87725    0.74197   1.00
C5       0.80526    0.75323    0.66542   1.00
H2       0.75338    0.71016    0.66919   1.00
C5       0.85626    0.72756    0.66548   1.00
H2       0.80366    0.77275    0.65003   1.00
H2       0.84440    0.69230    0.67857   1.00
H2       0.90771    0.77230    0.66841   1.00
C5       0.85603    0.69201    0.64550   1.00
H2       0.80326    0.65096    0.64199   1.00
H2       0.88940    0.66908    0.64674   1.00
H2       0.87622    0.72900    0.63260   1.00
C5       0.83179    0.90490    0.75266   1.00
H2       0.82748    0.92256    0.76807   1.00
H2       0.84706    0.94873    0.74216   1.00
C5       0.88560    0.88231    0.75238   1.00
H2       0.93406    0.92274    0.75911   1.00
C5       0.42863    0.60537    0.72405   1.00
H2       0.40727    0.64009    0.72439   1.00
H2       0.44447    0.60540    0.70811   1.00
C5       0.49099    0.63300    0.73839   1.00
H2       0.53747    0.67396    0.73084   1.00
H2       0.50036    0.59102    0.74289   1.00
O_3      0.20032    0.25655    0.71795   1.00
C4       0.16579    0.35978    0.71585   1.00
C3c      0.22755    0.42101    0.71310   1.00
H1       0.25677    0.42881    0.69940   1.00
C3d      0.12800    0.35104    0.73369   1.00
C3       0.25304    0.47251    0.72800   1.00
O2       0.30934    0.53414    0.72319   1.00
C3       0.15388    0.40167    0.74872   1.00
H1       0.12430    0.39167    0.76246   1.00
C2       0.21662    0.46358    0.74628   1.00
C5       0.16190    0.20645    0.73263   1.00
H2       0.13535    0.15403    0.72609   1.00
H2       0.12276    0.21612    0.73971   1.00
C5       0.21094    0.20978    0.74892   1.00
H2       0.23887    0.26268    0.75506   1.00
H2       0.24938    0.19942    0.74171   1.00
C5       0.17288    0.15837    0.76593   1.00
H2       0.14449    0.10548    0.75988   1.00
H2       0.13616    0.17011    0.77360   1.00
H2       0.20971    0.16050    0.77746   1.00
C5       0.01274    0.29013    0.72920   1.00
C5       0.36926    0.53491    0.72966   1.00
H2       0.01731    0.29514    0.71241   1.00
H2       0.00643    0.33253    0.73537   1.00
H2       0.37443    0.49424    0.72169   1.00
H2       0.36929    0.52578    0.74633   1.00
H2       0.48307    0.65640    0.75231   1.00
H2       -0.10502   0.19948    0.70525   1.00
H2       -0.12132   0.25297    0.72223   1.00
C2       0.08942    0.19821    0.67217   1.00
C3       0.07441    0.25140    0.67020   1.00
O2       0.02240    0.24392    0.65762   1.00
C3       0.13263    0.20169    0.68819   1.00
H1       0.14652    0.16270    0.68981   1.00
C3a      0.10105    0.30528    0.68439   1.00
H1       0.08593    0.34354    0.68336   1.00
C3b      0.15726    0.25417    0.70266   1.00
C4       0.14143    0.30646    0.70087   1.00
O_3      0.06957    0.28973    0.73781   1.00
C5       0.04935    0.27961    0.63931   1.00
H2       0.08415    0.33518    0.64212   1.00
C5       -0.01113   0.26980    0.62641   1.00
H2       0.07813    0.25914    0.63099   1.00
H2       -0.02780   0.30562    0.63195   1.00
H2       -0.05415   0.21734    0.62937   1.00
C5       0.00542    0.28043    0.60356   1.00
H2       0.05173    0.33091    0.60106   1.00
H2       -0.03770   0.27856    0.59490   1.00
H2       0.01380    0.23940    0.59721   1.00
C5       -0.05028   0.22244    0.73443   1.00
H2       -0.06146   0.22264    0.75087   1.00
H2       -0.03799   0.18104    0.73209   1.00
C5       -0.11223   0.20907    0.72142   1.00
H2       -0.15871   0.16307    0.72706   1.00
C5       0.18703    0.57572    0.72213   1.00
H2       0.24329    0.59897    0.72299   1.00
H2       0.17340    0.56145    0.70598   1.00
C5       0.15271    0.51158    0.73578   1.00
H2       0.14997    0.46682    0.72788   1.00
H2       0.10019    0.49966    0.73987   1.00
O_3      0.05464    0.79428    0.71679   1.00
C4       0.19398    0.83424    0.71586   1.00
C3c      0.19647    0.77420    0.71268   1.00
H1       0.17744    0.74635    0.69864   1.00
C3d      0.21994    0.87029    0.73414   1.00
C3       0.22246    0.74865    0.72757   1.00
O2       0.23093    0.69445    0.72242   1.00
C3       0.24464    0.84429    0.74915   1.00
H1       0.26177    0.87241    0.76321   1.00
C2       0.24685    0.78325    0.74628   1.00
C5       0.03937    0.82958    0.73164   1.00
H2       0.01253    0.85516    0.72511   1.00
H2       0.08666    0.86908    0.73932   1.00
C5       -0.00698   0.77774    0.74726   1.00
H2       0.01905    0.75081    0.75337   1.00
H2       -0.05428   0.73893    0.73946   1.00
C5       -0.02420   0.81233    0.76443   1.00
H2       -0.04978   0.83973    0.75842   1.00
H2       0.02277    0.84940    0.77267   1.00
H2       -0.05931   0.77347    0.77546   1.00
C5       0.27085    0.98580    0.73082   1.00
C5       0.17246    0.63258    0.72806   1.00
H2       0.27341    0.98335    0.71401   1.00
H2       0.31959    0.99333    0.73736   1.00
H2       0.12680    0.62649    0.71975   1.00
H2       0.16122    0.63016    0.74466   1.00
H2       0.18275    0.51902    0.74996   1.00
H2       0.29604    1.10487    0.70789   1.00
H2       0.36463    1.12180    0.72544   1.00
C2       0.10858    0.91035    0.67216   1.00
C3       0.17777    0.92821    0.67076   1.00
O2       0.22234    0.98244    0.65885   1.00
C3       0.06812    0.86451    0.68760   1.00
H1       0.01457    0.84845    0.68876   1.00
C3a      0.20514    0.90167    0.68494   1.00
H1       0.25907    0.91887    0.68438   1.00
C3b      0.09600    0.83994    0.70208   1.00
C4       0.16503    0.85856    0.70086   1.00
O_3      0.21396    0.92677    0.73865   1.00
C5       0.23454    0.95867    0.64042   1.00
H2       0.25695    0.92523    0.64313   1.00
C5       0.28505    1.02148    0.62830   1.00
H2       0.18647    0.92941    0.63158   1.00
H2       0.33726    1.03938    0.63431   1.00
H2       0.27318    1.06276    0.63149   1.00
C5       0.28232    1.00777    0.60531   1.00
H2       0.28890    0.96300    0.60253   1.00
H2       0.32351    1.05272    0.59724   1.00
H2       0.23298    0.99820    0.59858   1.00
C5       0.26271    1.04654    0.73645   1.00
H2       0.27196    1.05600    0.75303   1.00
H2       0.20871    1.03249    0.73366   1.00
C5       0.31104    1.11071    0.72421   1.00
H2       0.30884    1.15548    0.73017   1.00
