data_IRMOF10_interpen_symm_ligand2lp_label_h.

_audit_creation_method             'generated by an auxiliary program of Tobunporous'

_symmetry_space_group_name_H-M     'P 1'
_symmetry_Int_Tables_number        1
_symmetry_cell_setting             triclinic

_cell_length_a                    22.6523
_cell_length_b                    22.6523
_cell_length_c                    65.9502
_cell_angle_alpha                 90.0000
_cell_angle_beta                  90.0000
_cell_angle_gamma                 120.0000

loop_
_atom_site_label
_atom_site_fract_x
_atom_site_fract_y
_atom_site_fract_z
_atom_site_occupancy
O1       0.00000    -0.00000   0.62500   1.00
Zn      0.00000    -0.00000   0.59589   1.00
Zn      0.94848    1.04288    0.63392   1.00
Zn      0.09439    0.05152    0.63392   1.00
Zn      -0.04288   0.90561    0.63392   1.00
O2       0.93860    0.02610    0.58587   1.00
O2       0.08750    0.06140    0.58587   1.00
O2       -0.02610   0.91250    0.58587   1.00
O2       0.91305    0.07161    0.61181   1.00
O2       0.00462    0.12022    0.65110   1.00
O2       0.87413    0.98074    0.65071   1.00
O2       0.15856    0.08695    0.61181   1.00
O2       0.10660    0.12587    0.65071   1.00
O2       0.11559    0.99538    0.65110   1.00
O2       -0.07161   0.84144    0.61181   1.00
O2       0.87978    0.88441    0.65110   1.00
O2       0.01926    0.89340    0.65071   1.00
C1       0.91390    0.06020    0.59358   1.00
C1       0.14630    0.08610    0.59358   1.00
C1       -0.06020   0.85370    0.59358   1.00
C1       0.06663    0.14397    0.65673   1.00
C1       0.85603    0.92267    0.65673   1.00
C1       0.07733    0.93337    0.65673   1.00
O1       -0.00000   0.00000    0.87500   1.00
Zn      -0.00000   0.00000    0.90411   1.00
Zn      1.04288    0.94848    0.86608   1.00
Zn      0.05152    0.09439    0.86608   1.00
Zn      0.90561    -0.04288   0.86608   1.00
O2       0.02610    0.93860    0.91413   1.00
O2       0.06140    0.08750    0.91413   1.00
O2       0.91250    -0.02610   0.91413   1.00
O2       0.07161    0.91305    0.88819   1.00
O2       0.12022    0.00462    0.84890   1.00
O2       0.98074    0.87413    0.84929   1.00
O2       0.08695    0.15856    0.88819   1.00
O2       0.12587    0.10660    0.84929   1.00
O2       0.99538    0.11559    0.84890   1.00
O2       0.84144    -0.07161   0.88819   1.00
O2       0.88441    0.87978    0.84890   1.00
O2       0.89340    0.01926    0.84929   1.00
C1       0.06020    0.91390    0.90642   1.00
C1       0.08610    0.14630    0.90642   1.00
C1       0.85370    -0.06020   0.90642   1.00
C1       0.14397    0.06663    0.84327   1.00
C1       0.92267    0.85603    0.84327   1.00
C1       0.93337    0.07733    0.84327   1.00
O1       0.00000    0.00000    0.37500   1.00
Zn      0.00000    0.00000    0.40411   1.00
Zn      0.05152    -0.04288   0.36608   1.00
Zn      0.90561    0.94848    0.36608   1.00
Zn      1.04288    0.09439    0.36608   1.00
O2       0.06140    -0.02610   0.41413   1.00
O2       0.91250    0.93860    0.41413   1.00
O2       0.02610    0.08750    0.41413   1.00
O2       0.08695    -0.07161   0.38819   1.00
O2       0.99538    0.87978    0.34890   1.00
O2       0.12587    0.01926    0.34929   1.00
O2       0.84144    0.91305    0.38819   1.00
O2       0.89340    0.87413    0.34929   1.00
O2       0.88441    0.00462    0.34890   1.00
O2       0.07161    0.15856    0.38819   1.00
O2       0.12022    0.11559    0.34890   1.00
O2       0.98074    0.10660    0.34929   1.00
C1       0.08610    -0.06020   0.40642   1.00
C1       0.85370    0.91390    0.40642   1.00
C1       0.06020    0.14630    0.40642   1.00
C1       0.93337    0.85603    0.34327   1.00
C1       0.14397    0.07733    0.34327   1.00
C1       0.92267    0.06663    0.34327   1.00
O1       0.00000    0.00000    0.12500   1.00
Zn      0.00000    0.00000    0.09589   1.00
Zn      -0.04288   0.05152    0.13392   1.00
Zn      0.94848    0.90561    0.13392   1.00
Zn      0.09439    1.04288    0.13392   1.00
O2       -0.02610   0.06140    0.08587   1.00
O2       0.93860    0.91250    0.08587   1.00
O2       0.08750    0.02610    0.08587   1.00
O2       -0.07161   0.08695    0.11181   1.00
O2       0.87978    0.99538    0.15110   1.00
O2       0.01926    0.12587    0.15071   1.00
O2       0.91305    0.84144    0.11181   1.00
O2       0.87413    0.89340    0.15071   1.00
O2       0.00462    0.88441    0.15110   1.00
O2       0.15856    0.07161    0.11181   1.00
O2       0.11559    0.12022    0.15110   1.00
O2       0.10660    0.98074    0.15071   1.00
C1       -0.06020   0.08610    0.09358   1.00
C1       0.91390    0.85370    0.09358   1.00
C1       0.14630    0.06020    0.09358   1.00
C1       0.85603    0.93337    0.15673   1.00
C1       0.07733    0.14397    0.15673   1.00
C1       0.06663    0.92267    0.15673   1.00
O1       0.66667    0.33333    0.95833   1.00
Zn      0.66667    0.33333    0.92922   1.00
Zn      0.61515    0.37621    0.96725   1.00
Zn      0.76106    0.38485    0.96725   1.00
Zn      -0.37621   0.23894    0.96725   1.00
O2       0.60527    0.35943    0.91920   1.00
O2       0.75417    0.39473    0.91920   1.00
O2       0.64057    0.24583    0.91920   1.00
O2       0.57972    0.40494    0.94514   1.00
O2       0.67129    0.45355    0.98443   1.00
O2       0.54080    0.31407    0.98404   1.00
O2       0.82523    0.42028    0.94514   1.00
O2       0.77327    0.45920    0.98404   1.00
O2       -0.21774   0.32871    0.98443   1.00
O2       0.59506    0.17477    0.94514   1.00
O2       0.54645    0.21774    0.98443   1.00
O2       -0.31407   0.22673    0.98404   1.00
C1       0.58057    0.39353    0.92691   1.00
C1       0.81297    0.41943    0.92691   1.00
C1       0.60647    0.18703    0.92691   1.00
C1       0.73330    0.47730    0.99006   1.00
C1       0.52270    0.25600    0.99006   1.00
C1       -0.25600   0.26670    0.99006   1.00
O1       0.66667    0.33333    0.20833   1.00
Zn      0.66667    0.33333    0.23744   1.00
Zn      0.70954    0.28182    0.19942   1.00
Zn      0.71818    0.42773    0.19942   1.00
Zn      0.57227    0.29046    0.19942   1.00
O2       0.69277    0.27193    0.24746   1.00
O2       0.72807    0.42083    0.24746   1.00
O2       0.57917    0.30723    0.24746   1.00
O2       0.73828    0.24638    0.22152   1.00
O2       0.78688    0.33796    0.18224   1.00
O2       0.64740    0.20747    0.18263   1.00
O2       0.75362    0.49189    0.22152   1.00
O2       0.79253    0.43994    0.18263   1.00
O2       0.66204    0.44893    0.18224   1.00
O2       0.50811    0.26172    0.22152   1.00
O2       0.55107    0.21312    0.18224   1.00
O2       0.56006    0.35260    0.18263   1.00
C1       0.72687    0.24723    0.23975   1.00
C1       0.75277    0.47963    0.23975   1.00
C1       0.52037    0.27313    0.23975   1.00
C1       0.81063    0.39997    0.17661   1.00
C1       0.58933    0.18937    0.17661   1.00
C1       0.60003    0.41067    0.17661   1.00
O1       0.66667    0.33333    0.70833   1.00
Zn      0.66667    0.33333    0.73744   1.00
Zn      0.71818    0.29046    0.69942   1.00
Zn      0.57227    0.28182    0.69942   1.00
Zn      0.70954    0.42773    0.69942   1.00
O2       0.72807    0.30723    0.74746   1.00
O2       0.57917    0.27193    0.74746   1.00
O2       0.69277    0.42083    0.74746   1.00
O2       0.75362    0.26172    0.72152   1.00
O2       0.66204    0.21312    0.68224   1.00
O2       0.79253    0.35260    0.68263   1.00
O2       0.50811    0.24638    0.72152   1.00
O2       0.56006    0.20747    0.68263   1.00
O2       0.55107    0.33796    0.68224   1.00
O2       0.73828    0.49189    0.72152   1.00
O2       0.78688    0.44893    0.68224   1.00
O2       0.64740    0.43994    0.68263   1.00
C1       0.75277    0.27313    0.73975   1.00
C1       0.52037    0.24723    0.73975   1.00
C1       0.72687    0.47963    0.73975   1.00
C1       0.60003    0.18937    0.67661   1.00
C1       0.81063    0.41067    0.67661   1.00
C1       0.58933    0.39997    0.67661   1.00
O1       0.66667    0.33333    0.45833   1.00
Zn      0.66667    0.33333    0.42922   1.00
Zn      -0.37621   0.38485    0.46725   1.00
Zn      0.61515    0.23894    0.46725   1.00
Zn      0.76106    0.37621    0.46725   1.00
O2       0.64057    0.39473    0.41920   1.00
O2       0.60527    0.24583    0.41920   1.00
O2       0.75417    0.35943    0.41920   1.00
O2       0.59506    0.42028    0.44514   1.00
O2       0.54645    0.32871    0.48443   1.00
O2       -0.31407   0.45920    0.48404   1.00
O2       0.57972    0.17477    0.44514   1.00
O2       0.54080    0.22673    0.48404   1.00
O2       0.67129    0.21774    0.48443   1.00
O2       0.82523    0.40494    0.44514   1.00
O2       -0.21774   0.45355    0.48443   1.00
O2       0.77327    0.31407    0.48404   1.00
C1       0.60647    0.41943    0.42691   1.00
C1       0.58057    0.18703    0.42691   1.00
C1       0.81297    0.39353    0.42691   1.00
C1       0.52270    0.26670    0.49006   1.00
C1       -0.25600   0.47730    0.49006   1.00
C1       0.73330    0.25600    0.49006   1.00
O1       0.33333    0.66667    0.29167   1.00
Zn      0.33333    0.66667    0.26256   1.00
Zn      0.28182    0.70954    0.30058   1.00
Zn      0.42773    0.71818    0.30058   1.00
Zn      0.29046    0.57227    0.30058   1.00
O2       0.27193    0.69277    0.25254   1.00
O2       0.42083    0.72807    0.25254   1.00
O2       0.30723    0.57917    0.25254   1.00
O2       0.24638    0.73828    0.27848   1.00
O2       0.33796    0.78688    0.31776   1.00
O2       0.20747    0.64740    0.31737   1.00
O2       0.49189    0.75362    0.27848   1.00
O2       0.43994    0.79253    0.31737   1.00
O2       0.44893    0.66204    0.31776   1.00
O2       0.26172    0.50811    0.27848   1.00
O2       0.21312    0.55107    0.31776   1.00
O2       0.35260    0.56006    0.31737   1.00
C1       0.24723    0.72687    0.26025   1.00
C1       0.47963    0.75277    0.26025   1.00
C1       0.27313    0.52037    0.26025   1.00
C1       0.39997    0.81063    0.32339   1.00
C1       0.18937    0.58933    0.32339   1.00
C1       0.41067    0.60003    0.32339   1.00
O1       0.33333    0.66667    0.54167   1.00
Zn      0.33333    0.66667    0.57078   1.00
Zn      0.37621    0.61515    0.53275   1.00
Zn      0.38485    0.76106    0.53275   1.00
Zn      0.23894    -0.37621   0.53275   1.00
O2       0.35943    0.60527    0.58080   1.00
O2       0.39473    0.75417    0.58080   1.00
O2       0.24583    0.64057    0.58080   1.00
O2       0.40494    0.57972    0.55486   1.00
O2       0.45355    0.67129    0.51557   1.00
O2       0.31407    0.54080    0.51596   1.00
O2       0.42028    0.82523    0.55486   1.00
O2       0.45920    0.77327    0.51596   1.00
O2       0.32871    -0.21774   0.51557   1.00
O2       0.17477    0.59506    0.55486   1.00
O2       0.21774    0.54645    0.51557   1.00
O2       0.22673    -0.31407   0.51596   1.00
C1       0.39353    0.58057    0.57309   1.00
C1       0.41943    0.81297    0.57309   1.00
C1       0.18703    0.60647    0.57309   1.00
C1       0.47730    0.73330    0.50994   1.00
C1       0.25600    0.52270    0.50994   1.00
C1       0.26670    -0.25600   0.50994   1.00
O1       0.33333    0.66667    0.04167   1.00
Zn      0.33333    0.66667    0.07078   1.00
Zn      0.38485    -0.37621   0.03275   1.00
Zn      0.23894    0.61515    0.03275   1.00
Zn      0.37621    0.76106    0.03275   1.00
O2       0.39473    0.64057    0.08080   1.00
O2       0.24583    0.60527    0.08080   1.00
O2       0.35943    0.75417    0.08080   1.00
O2       0.42028    0.59506    0.05486   1.00
O2       0.32871    0.54645    0.01557   1.00
O2       0.45920    -0.31407   0.01596   1.00
O2       0.17477    0.57972    0.05486   1.00
O2       0.22673    0.54080    0.01596   1.00
O2       0.21774    0.67129    0.01557   1.00
O2       0.40494    0.82523    0.05486   1.00
O2       0.45355    -0.21774   0.01557   1.00
O2       0.31407    0.77327    0.01596   1.00
C1       0.41943    0.60647    0.07309   1.00
C1       0.18703    0.58057    0.07309   1.00
C1       0.39353    0.81297    0.07309   1.00
C1       0.26670    0.52270    0.00994   1.00
C1       0.47730    -0.25600   0.00994   1.00
C1       0.25600    0.73330    0.00994   1.00
O1       0.33333    0.66667    0.79167   1.00
Zn      0.33333    0.66667    0.76256   1.00
Zn      0.29046    0.71818    0.80058   1.00
Zn      0.28182    0.57227    0.80058   1.00
Zn      0.42773    0.70954    0.80058   1.00
O2       0.30723    0.72807    0.75254   1.00
O2       0.27193    0.57917    0.75254   1.00
O2       0.42083    0.69277    0.75254   1.00
O2       0.26172    0.75362    0.77848   1.00
O2       0.21312    0.66204    0.81776   1.00
O2       0.35260    0.79253    0.81737   1.00
O2       0.24638    0.50811    0.77848   1.00
O2       0.20747    0.56006    0.81737   1.00
O2       0.33796    0.55107    0.81776   1.00
O2       0.49189    0.73828    0.77848   1.00
O2       0.44893    0.78688    0.81776   1.00
O2       0.43994    0.64740    0.81737   1.00
C1       0.27313    0.75277    0.76025   1.00
C1       0.24723    0.52037    0.76025   1.00
C1       0.47963    0.72687    0.76025   1.00
C1       0.18937    0.60003    0.82339   1.00
C1       0.41067    0.81063    0.82339   1.00
C1       0.39997    0.58933    0.82339   1.00
C2       -0.22150   0.53623    0.50501   1.00
C3       -0.24775   0.57624    0.50846   1.00
H1       -0.28572   0.56906    0.50105   1.00
C3       -0.16712   0.54641    0.51632   1.00
H1       -0.14858   0.51833    0.51437   1.00
C3a      -0.22102   0.62778    0.52260   1.00
H1       -0.23949   0.65567    0.52506   1.00
C3b      -0.13871   0.59738    0.53074   1.00
H1       -0.10213   0.60343    0.53866   1.00
C6       -0.16639   0.63808    0.53430   1.00
C6       -0.13692   0.69219    0.54994   1.00
C3c      -0.16277   0.67929    0.56948   1.00
H1       -0.19513   0.63520    0.57326   1.00
C3d      -0.08409   0.75591    0.54421   1.00
H1       -0.06599   0.76649    0.53119   1.00
C3       -0.13623   0.73192    0.58350   1.00
H1       -0.15272   0.72319    0.59675   1.00
C3       -0.06043   0.80831    0.55946   1.00
H1       -0.02595   0.85191    0.55613   1.00
C2       -0.08630   0.79640    0.57845   1.00
C2       0.46377    0.24227    0.50501   1.00
C3       0.42376    0.17601    0.50846   1.00
H1       0.43094    0.14522    0.50105   1.00
C3       0.45359    0.28647    0.51632   1.00
H1       0.48167    0.33309    0.51437   1.00
C3a      0.37222    0.15120    0.52260   1.00
H1       0.34433    0.10484    0.52506   1.00
C3b      0.40262    0.26391    0.53074   1.00
H1       0.39657    0.29444    0.53866   1.00
C6       0.36192    0.19553    0.53430   1.00
C6       0.30781    0.17089    0.54994   1.00
C3c      0.32071    0.15794    0.56948   1.00
H1       0.36480    0.16966    0.57326   1.00
C3d      0.24409    0.16000    0.54421   1.00
H1       0.23351    0.16751    0.53119   1.00
C3       0.26808    0.13185    0.58350   1.00
H1       0.27681    0.12409    0.59675   1.00
C3       0.19169    0.13126    0.55946   1.00
H1       0.14809    0.12214    0.55613   1.00
C2       0.20360    0.11730    0.57845   1.00
C2       0.75773    0.22150    0.50501   1.00
C3       0.82399    0.24775    0.50846   1.00
H1       0.85478    0.28572    0.50105   1.00
C3       0.71353    0.16712    0.51632   1.00
H1       0.66691    0.14858    0.51437   1.00
C3a      0.84880    0.22102    0.52260   1.00
H1       0.89516    0.23949    0.52506   1.00
C3b      0.73609    0.13871    0.53074   1.00
H1       0.70556    0.10213    0.53866   1.00
C6       0.80447    0.16639    0.53430   1.00
C6       0.82911    0.13692    0.54994   1.00
C3c      0.84206    0.16277    0.56948   1.00
H1       0.83034    0.19513    0.57326   1.00
C3d      0.84000    0.08409    0.54421   1.00
H1       0.83249    0.06599    0.53119   1.00
C3       0.86815    0.13623    0.58350   1.00
H1       0.87591    0.15272    0.59675   1.00
C3       0.86874    0.06043    0.55946   1.00
H1       0.87786    0.02595    0.55613   1.00
C2       0.88270    0.08630    0.57845   1.00
C2       0.53623    -0.22150   0.99499   1.00
C3       0.57624    -0.24775   0.99154   1.00
H1       0.56906    -0.28572   0.99895   1.00
C3       0.54641    -0.16712   0.98368   1.00
H1       0.51833    -0.14858   0.98563   1.00
C3a      0.62778    -0.22102   0.97740   1.00
H1       0.65567    -0.23949   0.97494   1.00
C3b      0.59738    -0.13871   0.96926   1.00
H1       0.60343    -0.10213   0.96134   1.00
C6       0.63808    -0.16639   0.96570   1.00
C6       0.69219    -0.13692   0.95006   1.00
C3c      0.67929    -0.16277   0.93052   1.00
H1       0.63520    -0.19513   0.92674   1.00
C3d      0.75591    -0.08409   0.95579   1.00
H1       0.76649    -0.06599   0.96881   1.00
C3       0.73192    -0.13623   0.91650   1.00
H1       0.72319    -0.15272   0.90325   1.00
C3       0.80831    -0.06043   0.94054   1.00
H1       0.85191    -0.02595   0.94387   1.00
C2       0.79640    -0.08630   0.92155   1.00
C2       0.24227    0.46377    0.99499   1.00
C3       0.17601    0.42376    0.99154   1.00
H1       0.14522    0.43094    0.99895   1.00
C3       0.28647    0.45359    0.98368   1.00
H1       0.33309    0.48167    0.98563   1.00
C3a      0.15120    0.37222    0.97740   1.00
H1       0.10484    0.34433    0.97494   1.00
C3b      0.26391    0.40262    0.96926   1.00
H1       0.29444    0.39657    0.96134   1.00
C6       0.19553    0.36192    0.96570   1.00
C6       0.17089    0.30781    0.95006   1.00
C3c      0.15794    0.32071    0.93052   1.00
H1       0.16966    0.36480    0.92674   1.00
C3d      0.16000    0.24409    0.95579   1.00
H1       0.16751    0.23351    0.96881   1.00
C3       0.13185    0.26808    0.91650   1.00
H1       0.12409    0.27681    0.90325   1.00
C3       0.13126    0.19169    0.94054   1.00
H1       0.12214    0.14809    0.94387   1.00
C2       0.11730    0.20360    0.92155   1.00
C2       0.22150    0.75773    0.99499   1.00
C3       0.24775    0.82399    0.99154   1.00
H1       0.28572    0.85478    0.99895   1.00
C3       0.16712    0.71353    0.98368   1.00
H1       0.14858    0.66691    0.98563   1.00
C3a      0.22102    0.84880    0.97740   1.00
H1       0.23949    0.89516    0.97494   1.00
C3b      0.13871    0.73609    0.96926   1.00
H1       0.10213    0.70556    0.96134   1.00
C6       0.16639    0.80447    0.96570   1.00
C6       0.13692    0.82911    0.95006   1.00
C3c      0.16277    0.84206    0.93052   1.00
H1       0.19513    0.83034    0.92674   1.00
C3d      0.08409    0.84000    0.95579   1.00
H1       0.06599    0.83249    0.96881   1.00
C3       0.13623    0.86815    0.91650   1.00
H1       0.15272    0.87591    0.90325   1.00
C3       0.06043    0.86874    0.94054   1.00
H1       0.02595    0.87786    0.94387   1.00
C2       0.08630    0.88270    0.92155   1.00
C2       0.22150    0.46377    0.49499   1.00
C3       0.24775    0.42376    0.49154   1.00
H1       0.28572    0.43094    0.49895   1.00
C3       0.16712    0.45359    0.48368   1.00
H1       0.14858    0.48167    0.48563   1.00
C3a      0.22102    0.37222    0.47740   1.00
H1       0.23949    0.34433    0.47494   1.00
C3b      0.13871    0.40262    0.46926   1.00
H1       0.10213    0.39657    0.46134   1.00
C6       0.16639    0.36192    0.46570   1.00
C6       0.13692    0.30781    0.45006   1.00
C3c      0.16277    0.32071    0.43052   1.00
H1       0.19513    0.36480    0.42674   1.00
C3d      0.08409    0.24409    0.45579   1.00
H1       0.06599    0.23351    0.46881   1.00
C3       0.13623    0.26808    0.41650   1.00
H1       0.15272    0.27681    0.40325   1.00
C3       0.06043    0.19169    0.44054   1.00
H1       0.02595    0.14809    0.44387   1.00
C2       0.08630    0.20360    0.42155   1.00
C2       0.53623    0.75773    0.49499   1.00
C3       0.57624    0.82399    0.49154   1.00
H1       0.56906    0.85478    0.49895   1.00
C3       0.54641    0.71353    0.48368   1.00
H1       0.51833    0.66691    0.48563   1.00
C3a      0.62778    0.84880    0.47740   1.00
H1       0.65567    0.89516    0.47494   1.00
C3b      0.59738    0.73609    0.46926   1.00
H1       0.60343    0.70556    0.46134   1.00
C6       0.63808    0.80447    0.46570   1.00
C6       0.69219    0.82911    0.45006   1.00
C3c      0.67929    0.84206    0.43052   1.00
H1       0.63520    0.83034    0.42674   1.00
C3d      0.75591    0.84000    0.45579   1.00
H1       0.76649    0.83249    0.46881   1.00
C3       0.73192    0.86815    0.41650   1.00
H1       0.72319    0.87591    0.40325   1.00
C3       0.80831    0.86874    0.44054   1.00
H1       0.85191    0.87786    0.44387   1.00
C2       0.79640    0.88270    0.42155   1.00
C2       0.24227    -0.22150   0.49499   1.00
C3       0.17601    -0.24775   0.49154   1.00
H1       0.14522    -0.28572   0.49895   1.00
C3       0.28647    -0.16712   0.48368   1.00
H1       0.33309    -0.14858   0.48563   1.00
C3a      0.15120    -0.22102   0.47740   1.00
H1       0.10484    -0.23949   0.47494   1.00
C3b      0.26391    -0.13871   0.46926   1.00
H1       0.29444    -0.10213   0.46134   1.00
C6       0.19553    -0.16639   0.46570   1.00
C6       0.17089    -0.13692   0.45006   1.00
C3c      0.15794    -0.16277   0.43052   1.00
H1       0.16966    -0.19513   0.42674   1.00
C3d      0.16000    -0.08409   0.45579   1.00
H1       0.16751    -0.06599   0.46881   1.00
C3       0.13185    -0.13623   0.41650   1.00
H1       0.12409    -0.15272   0.40325   1.00
C3       0.13126    -0.06043   0.44054   1.00
H1       0.12214    -0.02595   0.44387   1.00
C2       0.11730    -0.08630   0.42155   1.00
C2       0.46377    0.22150    0.00501   1.00
C3       0.42376    0.24775    0.00846   1.00
H1       0.43094    0.28572    0.00105   1.00
C3       0.45359    0.16712    0.01632   1.00
H1       0.48167    0.14858    0.01437   1.00
C3a      0.37222    0.22102    0.02260   1.00
H1       0.34433    0.23949    0.02506   1.00
C3b      0.40262    0.13871    0.03074   1.00
H1       0.39657    0.10213    0.03866   1.00
C6       0.36192    0.16639    0.03430   1.00
C6       0.30781    0.13692    0.04994   1.00
C3c      0.32071    0.16277    0.06948   1.00
H1       0.36480    0.19513    0.07326   1.00
C3d      0.24409    0.08409    0.04421   1.00
H1       0.23351    0.06599    0.03119   1.00
C3       0.26808    0.13623    0.08350   1.00
H1       0.27681    0.15272    0.09675   1.00
C3       0.19169    0.06043    0.05946   1.00
H1       0.14809    0.02595    0.05613   1.00
C2       0.20360    0.08630    0.07845   1.00
C2       0.75773    0.53623    0.00501   1.00
C3       0.82399    0.57624    0.00846   1.00
H1       0.85478    0.56906    0.00105   1.00
C3       0.71353    0.54641    0.01632   1.00
H1       0.66691    0.51833    0.01437   1.00
C3a      0.84880    0.62778    0.02260   1.00
H1       0.89516    0.65567    0.02506   1.00
C3b      0.73609    0.59738    0.03074   1.00
H1       0.70556    0.60343    0.03866   1.00
C6       0.80447    0.63808    0.03430   1.00
C6       0.82911    0.69219    0.04994   1.00
C3c      0.84206    0.67929    0.06948   1.00
H1       0.83034    0.63520    0.07326   1.00
C3d      0.84000    0.75591    0.04421   1.00
H1       0.83249    0.76649    0.03119   1.00
C3       0.86815    0.73192    0.08350   1.00
H1       0.87591    0.72319    0.09675   1.00
C3       0.86874    0.80831    0.05946   1.00
H1       0.87786    0.85191    0.05613   1.00
C2       0.88270    0.79640    0.07845   1.00
C2       -0.22150   0.24227    0.00501   1.00
C3       -0.24775   0.17601    0.00846   1.00
H1       -0.28572   0.14522    0.00105   1.00
C3       -0.16712   0.28647    0.01632   1.00
H1       -0.14858   0.33309    0.01437   1.00
C3a      -0.22102   0.15120    0.02260   1.00
H1       -0.23949   0.10484    0.02506   1.00
C3b      -0.13871   0.26391    0.03074   1.00
H1       -0.10213   0.29444    0.03866   1.00
C6       -0.16639   0.19553    0.03430   1.00
C6       -0.13692   0.17089    0.04994   1.00
C3c      -0.16277   0.15794    0.06948   1.00
H1       -0.19513   0.16966    0.07326   1.00
C3d      -0.08409   0.16000    0.04421   1.00
H1       -0.06599   0.16751    0.03119   1.00
C3       -0.13623   0.13185    0.08350   1.00
H1       -0.15272   0.12409    0.09675   1.00
C3       -0.06043   0.13126    0.05946   1.00
H1       -0.02595   0.12214    0.05613   1.00
C2       -0.08630   0.11730    0.07845   1.00
C2       0.44517    0.86956    0.83834   1.00
C3       0.41892    0.90957    0.84179   1.00
H1       0.38095    0.90239    0.83438   1.00
C3       0.49955    0.87974    0.84965   1.00
H1       0.51809    0.85166    0.84770   1.00
C3a      0.44565    0.96111    0.85593   1.00
H1       0.42718    0.98900    0.85839   1.00
C3b      0.52796    0.93071    0.86407   1.00
H1       0.56454    0.93676    0.87199   1.00
C6       0.50028    0.97141    0.86763   1.00
C6       0.52975    0.02552    0.88327   1.00
C3c      0.50390    0.01262    0.90281   1.00
H1       0.47154    -0.03147   0.90659   1.00
C3d      0.58258    0.08924    0.87754   1.00
H1       0.60068    0.09982    0.86452   1.00
C3       0.53044    0.06525    0.91683   1.00
H1       0.51395    0.05652    0.93008   1.00
C3       0.60624    0.14164    0.89279   1.00
H1       0.64072    0.18524    0.88946   1.00
C2       0.58037    0.12973    0.91178   1.00
C2       0.13044    0.57560    0.83834   1.00
C3       0.09043    0.50934    0.84179   1.00
H1       0.09761    0.47855    0.83438   1.00
C3       0.12026    0.61980    0.84965   1.00
H1       0.14834    0.66642    0.84770   1.00
C3a      0.03889    0.48453    0.85593   1.00
H1       0.01100    0.43817    0.85839   1.00
C3b      0.06929    0.59724    0.86407   1.00
H1       0.06324    0.62777    0.87199   1.00
C6       0.02859    0.52886    0.86763   1.00
C6       0.97448    0.50422    0.88327   1.00
C3c      0.98738    0.49127    0.90281   1.00
H1       1.03147    0.50299    0.90659   1.00
C3d      0.91076    0.49333    0.87754   1.00
H1       0.90018    0.50084    0.86452   1.00
C3       0.93475    0.46518    0.91683   1.00
H1       0.94348    0.45742    0.93008   1.00
C3       0.85836    0.46459    0.89279   1.00
H1       0.81476    0.45547    0.88946   1.00
C2       0.87027    0.45063    0.91178   1.00
C2       0.42440    0.55483    0.83834   1.00
C3       0.49066    0.58108    0.84179   1.00
H1       0.52145    0.61905    0.83438   1.00
C3       0.38020    0.50045    0.84965   1.00
H1       0.33358    0.48191    0.84770   1.00
C3a      0.51547    0.55435    0.85593   1.00
H1       0.56183    0.57282    0.85839   1.00
C3b      0.40276    0.47204    0.86407   1.00
H1       0.37223    0.43546    0.87199   1.00
C6       0.47114    0.49972    0.86763   1.00
C6       0.49578    0.47025    0.88327   1.00
C3c      0.50873    0.49610    0.90281   1.00
H1       0.49701    0.52846    0.90659   1.00
C3d      0.50667    0.41742    0.87754   1.00
H1       0.49916    0.39932    0.86452   1.00
C3       0.53482    0.46956    0.91683   1.00
H1       0.54258    0.48605    0.93008   1.00
C3       0.53541    0.39376    0.89279   1.00
H1       0.54453    0.35928    0.88946   1.00
C2       0.54937    0.41963    0.91178   1.00
C2       0.20290    0.11183    0.32832   1.00
C3       0.24291    0.08558    0.32487   1.00
H1       0.23573    0.04761    0.33228   1.00
C3       0.21308    0.16621    0.31701   1.00
H1       0.18500    0.18475    0.31896   1.00
C3a      0.29445    0.11231    0.31073   1.00
H1       0.32234    0.09384    0.30827   1.00
C3b      0.26405    0.19462    0.30259   1.00
H1       0.27010    0.23120    0.29467   1.00
C6       0.30475    0.16694    0.29903   1.00
C6       0.35886    0.19641    0.28339   1.00
C3c      0.34596    0.17056    0.26385   1.00
H1       0.30187    0.13820    0.26007   1.00
C3d      0.42258    0.24924    0.28912   1.00
H1       0.43316    0.26734    0.30214   1.00
C3       0.39859    0.19710    0.24983   1.00
H1       0.38986    0.18061    0.23658   1.00
C3       0.47498    0.27290    0.27387   1.00
H1       0.51858    0.30738    0.27720   1.00
C2       0.46307    0.24703    0.25488   1.00
C2       0.90894    0.79710    0.32832   1.00
C3       0.84268    0.75709    0.32487   1.00
H1       0.81189    0.76427    0.33228   1.00
C3       0.95314    0.78692    0.31701   1.00
H1       0.99976    0.81500    0.31896   1.00
C3a      0.81787    0.70555    0.31073   1.00
H1       0.77151    0.67766    0.30827   1.00
C3b      0.93058    0.73595    0.30259   1.00
H1       0.96111    0.72990    0.29467   1.00
C6       0.86220    0.69525    0.29903   1.00
C6       0.83756    0.64114    0.28339   1.00
C3c      0.82461    0.65404    0.26385   1.00
H1       0.83633    0.69813    0.26007   1.00
C3d      0.82667    0.57742    0.28912   1.00
H1       0.83418    0.56684    0.30214   1.00
C3       0.79852    0.60141    0.24983   1.00
H1       0.79076    0.61014    0.23658   1.00
C3       0.79793    0.52502    0.27387   1.00
H1       0.78881    0.48142    0.27720   1.00
C2       0.78397    0.53693    0.25488   1.00
C2       0.88817    0.09106    0.32832   1.00
C3       0.91442    0.15732    0.32487   1.00
H1       0.95239    0.18811    0.33228   1.00
C3       0.83379    0.04686    0.31701   1.00
H1       0.81525    0.00024    0.31896   1.00
C3a      0.88769    0.18213    0.31073   1.00
H1       0.90616    0.22849    0.30827   1.00
C3b      0.80538    0.06942    0.30259   1.00
H1       0.76880    0.03889    0.29467   1.00
C6       0.83306    0.13780    0.29903   1.00
C6       0.80359    0.16244    0.28339   1.00
C3c      0.82944    0.17539    0.26385   1.00
H1       0.86180    0.16367    0.26007   1.00
C3d      0.75076    0.17333    0.28912   1.00
H1       0.73266    0.16582    0.30214   1.00
C3       0.80290    0.20148    0.24983   1.00
H1       0.81939    0.20924    0.23658   1.00
C3       0.72710    0.20207    0.27387   1.00
H1       0.69262    0.21119    0.27720   1.00
C2       0.75297    0.21603    0.25488   1.00
C2       0.88817    0.79710    0.82832   1.00
C3       0.91442    0.75709    0.82487   1.00
H1       0.95239    0.76427    0.83228   1.00
C3       0.83379    0.78692    0.81701   1.00
H1       0.81525    0.81500    0.81896   1.00
C3a      0.88769    0.70555    0.81073   1.00
H1       0.90616    0.67766    0.80827   1.00
C3b      0.80538    0.73595    0.80259   1.00
H1       0.76880    0.72990    0.79467   1.00
C6       0.83306    0.69525    0.79903   1.00
C6       0.80359    0.64114    0.78339   1.00
C3c      0.82944    0.65404    0.76385   1.00
H1       0.86180    0.69813    0.76007   1.00
C3d      0.75076    0.57742    0.78912   1.00
H1       0.73266    0.56684    0.80214   1.00
C3       0.80290    0.60141    0.74983   1.00
H1       0.81939    0.61014    0.73658   1.00
C3       0.72710    0.52502    0.77387   1.00
H1       0.69262    0.48142    0.77720   1.00
C2       0.75297    0.53693    0.75488   1.00
C2       0.20290    0.09106    0.82832   1.00
C3       0.24291    0.15732    0.82487   1.00
H1       0.23573    0.18811    0.83228   1.00
C3       0.21308    0.04686    0.81701   1.00
H1       0.18500    0.00024    0.81896   1.00
C3a      0.29445    0.18213    0.81073   1.00
H1       0.32234    0.22849    0.80827   1.00
C3b      0.26405    0.06942    0.80259   1.00
H1       0.27010    0.03889    0.79467   1.00
C6       0.30475    0.13780    0.79903   1.00
C6       0.35886    0.16244    0.78339   1.00
C3c      0.34596    0.17539    0.76385   1.00
H1       0.30187    0.16367    0.76007   1.00
C3d      0.42258    0.17333    0.78912   1.00
H1       0.43316    0.16582    0.80214   1.00
C3       0.39859    0.20148    0.74983   1.00
H1       0.38986    0.20924    0.73658   1.00
C3       0.47498    0.20207    0.77387   1.00
H1       0.51858    0.21119    0.77720   1.00
C2       0.46307    0.21603    0.75488   1.00
C2       0.90894    0.11183    0.82832   1.00
C3       0.84268    0.08558    0.82487   1.00
H1       0.81189    0.04761    0.83228   1.00
C3       0.95314    0.16621    0.81701   1.00
H1       0.99976    0.18475    0.81896   1.00
C3a      0.81787    0.11231    0.81073   1.00
H1       0.77151    0.09384    0.80827   1.00
C3b      0.93058    0.19462    0.80259   1.00
H1       0.96111    0.23120    0.79467   1.00
C6       0.86220    0.16694    0.79903   1.00
C6       0.83756    0.19641    0.78339   1.00
C3c      0.82461    0.17056    0.76385   1.00
H1       0.83633    0.13820    0.76007   1.00
C3d      0.82667    0.24924    0.78912   1.00
H1       0.83418    0.26734    0.80214   1.00
C3       0.79852    0.19710    0.74983   1.00
H1       0.79076    0.18061    0.73658   1.00
C3       0.79793    0.27290    0.77387   1.00
H1       0.78881    0.30738    0.77720   1.00
C2       0.78397    0.24703    0.75488   1.00
C2       0.13044    0.55483    0.33834   1.00
C3       0.09043    0.58108    0.34179   1.00
H1       0.09761    0.61905    0.33438   1.00
C3       0.12026    0.50045    0.34965   1.00
H1       0.14834    0.48191    0.34770   1.00
C3a      0.03889    0.55435    0.35593   1.00
H1       0.01100    0.57282    0.35839   1.00
C3b      0.06929    0.47204    0.36407   1.00
H1       0.06324    0.43546    0.37199   1.00
C6       0.02859    0.49972    0.36763   1.00
C6       0.97448    0.47025    0.38327   1.00
C3c      0.98738    0.49610    0.40281   1.00
H1       1.03147    0.52846    0.40659   1.00
C3d      0.91076    0.41742    0.37754   1.00
H1       0.90018    0.39932    0.36452   1.00
C3       0.93475    0.46956    0.41683   1.00
H1       0.94348    0.48605    0.43008   1.00
C3       0.85836    0.39376    0.39279   1.00
H1       0.81476    0.35928    0.38946   1.00
C2       0.87027    0.41963    0.41178   1.00
C2       0.42440    0.86956    0.33834   1.00
C3       0.49066    0.90957    0.34179   1.00
H1       0.52145    0.90239    0.33438   1.00
C3       0.38020    0.87974    0.34965   1.00
H1       0.33358    0.85166    0.34770   1.00
C3a      0.51547    0.96111    0.35593   1.00
H1       0.56183    0.98900    0.35839   1.00
C3b      0.40276    0.93071    0.36407   1.00
H1       0.37223    0.93676    0.37199   1.00
C6       0.47114    0.97141    0.36763   1.00
C6       0.49578    0.02552    0.38327   1.00
C3c      0.50873    0.01262    0.40281   1.00
H1       0.49701    -0.03147   0.40659   1.00
C3d      0.50667    0.08924    0.37754   1.00
H1       0.49916    0.09982    0.36452   1.00
C3       0.53482    0.06525    0.41683   1.00
H1       0.54258    0.05652    0.43008   1.00
C3       0.53541    0.14164    0.39279   1.00
H1       0.54453    0.18524    0.38946   1.00
C2       0.54937    0.12973    0.41178   1.00
C2       0.44517    0.57560    0.33834   1.00
C3       0.41892    0.50934    0.34179   1.00
H1       0.38095    0.47855    0.33438   1.00
C3       0.49955    0.61980    0.34965   1.00
H1       0.51809    0.66642    0.34770   1.00
C3a      0.44565    0.48453    0.35593   1.00
H1       0.42718    0.43817    0.35839   1.00
C3b      0.52796    0.59724    0.36407   1.00
H1       0.56454    0.62777    0.37199   1.00
C6       0.50028    0.52886    0.36763   1.00
C6       0.52975    0.50422    0.38327   1.00
C3c      0.50390    0.49127    0.40281   1.00
H1       0.47154    0.50299    0.40659   1.00
C3d      0.58258    0.49333    0.37754   1.00
H1       0.60068    0.50084    0.36452   1.00
C3       0.53044    0.46518    0.41683   1.00
H1       0.51395    0.45742    0.43008   1.00
C3       0.60624    0.46459    0.39279   1.00
H1       0.64072    0.45547    0.38946   1.00
C2       0.58037    0.45063    0.41178   1.00
C2       0.11183    0.20290    0.17168   1.00
C3       0.08558    0.24291    0.17513   1.00
H1       0.04761    0.23573    0.16772   1.00
C3       0.16621    0.21308    0.18299   1.00
H1       0.18475    0.18500    0.18104   1.00
C3a      0.11231    0.29445    0.18927   1.00
H1       0.09384    0.32234    0.19173   1.00
C3b      0.19462    0.26405    0.19741   1.00
H1       0.23120    0.27010    0.20533   1.00
C6       0.16694    0.30475    0.20097   1.00
C6       0.19641    0.35886    0.21661   1.00
C3c      0.17056    0.34596    0.23615   1.00
H1       0.13820    0.30187    0.23993   1.00
C3d      0.24924    0.42258    0.21088   1.00
H1       0.26734    0.43316    0.19786   1.00
C3       0.19710    0.39859    0.25017   1.00
H1       0.18061    0.38986    0.26342   1.00
C3       0.27290    0.47498    0.22613   1.00
H1       0.30738    0.51858    0.22280   1.00
C2       0.24703    0.46307    0.24512   1.00
C2       0.79710    0.90894    0.17168   1.00
C3       0.75709    0.84268    0.17513   1.00
H1       0.76427    0.81189    0.16772   1.00
C3       0.78692    0.95314    0.18299   1.00
H1       0.81500    0.99976    0.18104   1.00
C3a      0.70555    0.81787    0.18927   1.00
H1       0.67766    0.77151    0.19173   1.00
C3b      0.73595    0.93058    0.19741   1.00
H1       0.72990    0.96111    0.20533   1.00
C6       0.69525    0.86220    0.20097   1.00
C6       0.64114    0.83756    0.21661   1.00
C3c      0.65404    0.82461    0.23615   1.00
H1       0.69813    0.83633    0.23993   1.00
C3d      0.57742    0.82667    0.21088   1.00
H1       0.56684    0.83418    0.19786   1.00
C3       0.60141    0.79852    0.25017   1.00
H1       0.61014    0.79076    0.26342   1.00
C3       0.52502    0.79793    0.22613   1.00
H1       0.48142    0.78881    0.22280   1.00
C2       0.53693    0.78397    0.24512   1.00
C2       0.09106    0.88817    0.17168   1.00
C3       0.15732    0.91442    0.17513   1.00
H1       0.18811    0.95239    0.16772   1.00
C3       0.04686    0.83379    0.18299   1.00
H1       0.00024    0.81525    0.18104   1.00
C3a      0.18213    0.88769    0.18927   1.00
H1       0.22849    0.90616    0.19173   1.00
C3b      0.06942    0.80538    0.19741   1.00
H1       0.03889    0.76880    0.20533   1.00
C6       0.13780    0.83306    0.20097   1.00
C6       0.16244    0.80359    0.21661   1.00
C3c      0.17539    0.82944    0.23615   1.00
H1       0.16367    0.86180    0.23993   1.00
C3d      0.17333    0.75076    0.21088   1.00
H1       0.16582    0.73266    0.19786   1.00
C3       0.20148    0.80290    0.25017   1.00
H1       0.20924    0.81939    0.26342   1.00
C3       0.20207    0.72710    0.22613   1.00
H1       0.21119    0.69262    0.22280   1.00
C2       0.21603    0.75297    0.24512   1.00
C2       0.86956    0.44517    0.66166   1.00
C3       0.90957    0.41892    0.65821   1.00
H1       0.90239    0.38095    0.66562   1.00
C3       0.87974    0.49955    0.65035   1.00
H1       0.85166    0.51809    0.65230   1.00
C3a      0.96111    0.44565    0.64407   1.00
H1       0.98900    0.42718    0.64161   1.00
C3b      0.93071    0.52796    0.63593   1.00
H1       0.93676    0.56454    0.62801   1.00
C6       0.97141    0.50028    0.63237   1.00
C6       0.02552    0.52975    0.61673   1.00
C3c      0.01262    0.50390    0.59719   1.00
H1       -0.03147   0.47154    0.59341   1.00
C3d      0.08924    0.58258    0.62246   1.00
H1       0.09982    0.60068    0.63548   1.00
C3       0.06525    0.53044    0.58317   1.00
H1       0.05652    0.51395    0.56992   1.00
C3       0.14164    0.60624    0.60721   1.00
H1       0.18524    0.64072    0.61054   1.00
C2       0.12973    0.58037    0.58822   1.00
C2       0.57560    0.13044    0.66166   1.00
C3       0.50934    0.09043    0.65821   1.00
H1       0.47855    0.09761    0.66562   1.00
C3       0.61980    0.12026    0.65035   1.00
H1       0.66642    0.14834    0.65230   1.00
C3a      0.48453    0.03889    0.64407   1.00
H1       0.43817    0.01100    0.64161   1.00
C3b      0.59724    0.06929    0.63593   1.00
H1       0.62777    0.06324    0.62801   1.00
C6       0.52886    0.02859    0.63237   1.00
C6       0.50422    0.97448    0.61673   1.00
C3c      0.49127    0.98738    0.59719   1.00
H1       0.50299    1.03147    0.59341   1.00
C3d      0.49333    0.91076    0.62246   1.00
H1       0.50084    0.90018    0.63548   1.00
C3       0.46518    0.93475    0.58317   1.00
H1       0.45742    0.94348    0.56992   1.00
C3       0.46459    0.85836    0.60721   1.00
H1       0.45547    0.81476    0.61054   1.00
C2       0.45063    0.87027    0.58822   1.00
C2       0.55483    0.42440    0.66166   1.00
C3       0.58108    0.49066    0.65821   1.00
H1       0.61905    0.52145    0.66562   1.00
C3       0.50045    0.38020    0.65035   1.00
H1       0.48191    0.33358    0.65230   1.00
C3a      0.55435    0.51547    0.64407   1.00
H1       0.57282    0.56183    0.64161   1.00
C3b      0.47204    0.40276    0.63593   1.00
H1       0.43546    0.37223    0.62801   1.00
C6       0.49972    0.47114    0.63237   1.00
C6       0.47025    0.49578    0.61673   1.00
C3c      0.49610    0.50873    0.59719   1.00
H1       0.52846    0.49701    0.59341   1.00
C3d      0.41742    0.50667    0.62246   1.00
H1       0.39932    0.49916    0.63548   1.00
C3       0.46956    0.53482    0.58317   1.00
H1       0.48605    0.54258    0.56992   1.00
C3       0.39376    0.53541    0.60721   1.00
H1       0.35928    0.54453    0.61054   1.00
C2       0.41963    0.54937    0.58822   1.00
C2       0.55483    0.13044    0.16166   1.00
C3       0.58108    0.09043    0.15821   1.00
H1       0.61905    0.09761    0.16562   1.00
C3       0.50045    0.12026    0.15035   1.00
H1       0.48191    0.14834    0.15230   1.00
C3a      0.55435    0.03889    0.14407   1.00
H1       0.57282    0.01100    0.14161   1.00
C3b      0.47204    0.06929    0.13593   1.00
H1       0.43546    0.06324    0.12801   1.00
C6       0.49972    0.02859    0.13237   1.00
C6       0.47025    0.97448    0.11673   1.00
C3c      0.49610    0.98738    0.09719   1.00
H1       0.52846    1.03147    0.09341   1.00
C3d      0.41742    0.91076    0.12246   1.00
H1       0.39932    0.90018    0.13548   1.00
C3       0.46956    0.93475    0.08317   1.00
H1       0.48605    0.94348    0.06992   1.00
C3       0.39376    0.85836    0.10721   1.00
H1       0.35928    0.81476    0.11054   1.00
C2       0.41963    0.87027    0.08822   1.00
C2       0.86956    0.42440    0.16166   1.00
C3       0.90957    0.49066    0.15821   1.00
H1       0.90239    0.52145    0.16562   1.00
C3       0.87974    0.38020    0.15035   1.00
H1       0.85166    0.33358    0.15230   1.00
C3a      0.96111    0.51547    0.14407   1.00
H1       0.98900    0.56183    0.14161   1.00
C3b      0.93071    0.40276    0.13593   1.00
H1       0.93676    0.37223    0.12801   1.00
C6       0.97141    0.47114    0.13237   1.00
C6       0.02552    0.49578    0.11673   1.00
C3c      0.01262    0.50873    0.09719   1.00
H1       -0.03147   0.49701    0.09341   1.00
C3d      0.08924    0.50667    0.12246   1.00
H1       0.09982    0.49916    0.13548   1.00
C3       0.06525    0.53482    0.08317   1.00
H1       0.05652    0.54258    0.06992   1.00
C3       0.14164    0.53541    0.10721   1.00
H1       0.18524    0.54453    0.11054   1.00
C2       0.12973    0.54937    0.08822   1.00
C2       0.57560    0.44517    0.16166   1.00
C3       0.50934    0.41892    0.15821   1.00
H1       0.47855    0.38095    0.16562   1.00
C3       0.61980    0.49955    0.15035   1.00
H1       0.66642    0.51809    0.15230   1.00
C3a      0.48453    0.44565    0.14407   1.00
H1       0.43817    0.42718    0.14161   1.00
C3b      0.59724    0.52796    0.13593   1.00
H1       0.62777    0.56454    0.12801   1.00
C6       0.52886    0.50028    0.13237   1.00
C6       0.50422    0.52975    0.11673   1.00
C3c      0.49127    0.50390    0.09719   1.00
H1       0.50299    0.47154    0.09341   1.00
C3d      0.49333    0.58258    0.12246   1.00
H1       0.50084    0.60068    0.13548   1.00
C3       0.46518    0.53044    0.08317   1.00
H1       0.45742    0.51395    0.06992   1.00
C3       0.46459    0.60624    0.10721   1.00
H1       0.45547    0.64072    0.11054   1.00
C2       0.45063    0.58037    0.08822   1.00
C2       0.79710    0.88817    0.67168   1.00
C3       0.75709    0.91442    0.67513   1.00
H1       0.76427    0.95239    0.66772   1.00
C3       0.78692    0.83379    0.68299   1.00
H1       0.81500    0.81525    0.68104   1.00
C3a      0.70555    0.88769    0.68927   1.00
H1       0.67766    0.90616    0.69173   1.00
C3b      0.73595    0.80538    0.69741   1.00
H1       0.72990    0.76880    0.70533   1.00
C6       0.69525    0.83306    0.70097   1.00
C6       0.64114    0.80359    0.71661   1.00
C3c      0.65404    0.82944    0.73615   1.00
H1       0.69813    0.86180    0.73993   1.00
C3d      0.57742    0.75076    0.71088   1.00
H1       0.56684    0.73266    0.69786   1.00
C3       0.60141    0.80290    0.75017   1.00
H1       0.61014    0.81939    0.76342   1.00
C3       0.52502    0.72710    0.72613   1.00
H1       0.48142    0.69262    0.72280   1.00
C2       0.53693    0.75297    0.74512   1.00
C2       0.09106    0.20290    0.67168   1.00
C3       0.15732    0.24291    0.67513   1.00
H1       0.18811    0.23573    0.66772   1.00
C3       0.04686    0.21308    0.68299   1.00
H1       0.00024    0.18500    0.68104   1.00
C3a      0.18213    0.29445    0.68927   1.00
H1       0.22849    0.32234    0.69173   1.00
C3b      0.06942    0.26405    0.69741   1.00
H1       0.03889    0.27010    0.70533   1.00
C6       0.13780    0.30475    0.70097   1.00
C6       0.16244    0.35886    0.71661   1.00
C3c      0.17539    0.34596    0.73615   1.00
H1       0.16367    0.30187    0.73993   1.00
C3d      0.17333    0.42258    0.71088   1.00
H1       0.16582    0.43316    0.69786   1.00
C3       0.20148    0.39859    0.75017   1.00
H1       0.20924    0.38986    0.76342   1.00
C3       0.20207    0.47498    0.72613   1.00
H1       0.21119    0.51858    0.72280   1.00
C2       0.21603    0.46307    0.74512   1.00
C2       0.11183    0.90894    0.67168   1.00
C3       0.08558    0.84268    0.67513   1.00
H1       0.04761    0.81189    0.66772   1.00
C3       0.16621    0.95314    0.68299   1.00
H1       0.18475    0.99976    0.68104   1.00
C3a      0.11231    0.81787    0.68927   1.00
H1       0.09384    0.77151    0.69173   1.00
C3b      0.19462    0.93058    0.69741   1.00
H1       0.23120    0.96111    0.70533   1.00
C6       0.16694    0.86220    0.70097   1.00
C6       0.19641    0.83756    0.71661   1.00
C3c      0.17056    0.82461    0.73615   1.00
H1       0.13820    0.83633    0.73993   1.00
C3d      0.24924    0.82667    0.71088   1.00
H1       0.26734    0.83418    0.69786   1.00
C3       0.19710    0.79852    0.75017   1.00
H1       0.18061    0.79076    0.76342   1.00
C3       0.27290    0.79793    0.72613   1.00
H1       0.30738    0.78881    0.72280   1.00
C2       0.24703    0.78397    0.74512   1.00
