data_IRMOF10_interpen_symm_ligand2lp_label_g.

_audit_creation_method             'generated by an auxiliary program of Tobunporous'

_symmetry_space_group_name_H-M     'P 1'
_symmetry_Int_Tables_number        1
_symmetry_cell_setting             triclinic

_cell_length_a                    22.6523
_cell_length_b                    22.6523
_cell_length_c                    65.9502
_cell_angle_alpha                 90.0000
_cell_angle_beta                  90.0000
_cell_angle_gamma                 120.0000

loop_
_atom_site_label
_atom_site_fract_x
_atom_site_fract_y
_atom_site_fract_z
_atom_site_occupancy
O1       0.00000    -0.00000   0.62500   1.00
Zn      0.00000    -0.00000   0.59589   1.00
Zn      0.94848    1.04288    0.63392   1.00
Zn      0.09439    0.05152    0.63392   1.00
Zn      -0.04288   0.90561    0.63392   1.00
O2       0.93860    0.02610    0.58587   1.00
O2       0.08750    0.06140    0.58587   1.00
O2       -0.02610   0.91250    0.58587   1.00
O2       0.91305    0.07161    0.61181   1.00
O2       0.00462    0.12022    0.65110   1.00
O2       0.87413    0.98074    0.65071   1.00
O2       0.15856    0.08695    0.61181   1.00
O2       0.10660    0.12587    0.65071   1.00
O2       0.11559    0.99538    0.65110   1.00
O2       -0.07161   0.84144    0.61181   1.00
O2       0.87978    0.88441    0.65110   1.00
O2       0.01926    0.89340    0.65071   1.00
C1       0.91390    0.06020    0.59358   1.00
C1       0.14630    0.08610    0.59358   1.00
C1       -0.06020   0.85370    0.59358   1.00
C1       0.06663    0.14397    0.65673   1.00
C1       0.85603    0.92267    0.65673   1.00
C1       0.07733    0.93337    0.65673   1.00
O1       -0.00000   0.00000    0.87500   1.00
Zn      -0.00000   0.00000    0.90411   1.00
Zn      1.04288    0.94848    0.86608   1.00
Zn      0.05152    0.09439    0.86608   1.00
Zn      0.90561    -0.04288   0.86608   1.00
O2       0.02610    0.93860    0.91413   1.00
O2       0.06140    0.08750    0.91413   1.00
O2       0.91250    -0.02610   0.91413   1.00
O2       0.07161    0.91305    0.88819   1.00
O2       0.12022    0.00462    0.84890   1.00
O2       0.98074    0.87413    0.84929   1.00
O2       0.08695    0.15856    0.88819   1.00
O2       0.12587    0.10660    0.84929   1.00
O2       0.99538    0.11559    0.84890   1.00
O2       0.84144    -0.07161   0.88819   1.00
O2       0.88441    0.87978    0.84890   1.00
O2       0.89340    0.01926    0.84929   1.00
C1       0.06020    0.91390    0.90642   1.00
C1       0.08610    0.14630    0.90642   1.00
C1       0.85370    -0.06020   0.90642   1.00
C1       0.14397    0.06663    0.84327   1.00
C1       0.92267    0.85603    0.84327   1.00
C1       0.93337    0.07733    0.84327   1.00
O1       0.00000    0.00000    0.37500   1.00
Zn      0.00000    0.00000    0.40411   1.00
Zn      0.05152    -0.04288   0.36608   1.00
Zn      0.90561    0.94848    0.36608   1.00
Zn      1.04288    0.09439    0.36608   1.00
O2       0.06140    -0.02610   0.41413   1.00
O2       0.91250    0.93860    0.41413   1.00
O2       0.02610    0.08750    0.41413   1.00
O2       0.08695    -0.07161   0.38819   1.00
O2       0.99538    0.87978    0.34890   1.00
O2       0.12587    0.01926    0.34929   1.00
O2       0.84144    0.91305    0.38819   1.00
O2       0.89340    0.87413    0.34929   1.00
O2       0.88441    0.00462    0.34890   1.00
O2       0.07161    0.15856    0.38819   1.00
O2       0.12022    0.11559    0.34890   1.00
O2       0.98074    0.10660    0.34929   1.00
C1       0.08610    -0.06020   0.40642   1.00
C1       0.85370    0.91390    0.40642   1.00
C1       0.06020    0.14630    0.40642   1.00
C1       0.93337    0.85603    0.34327   1.00
C1       0.14397    0.07733    0.34327   1.00
C1       0.92267    0.06663    0.34327   1.00
O1       0.00000    0.00000    0.12500   1.00
Zn      0.00000    0.00000    0.09589   1.00
Zn      -0.04288   0.05152    0.13392   1.00
Zn      0.94848    0.90561    0.13392   1.00
Zn      0.09439    1.04288    0.13392   1.00
O2       -0.02610   0.06140    0.08587   1.00
O2       0.93860    0.91250    0.08587   1.00
O2       0.08750    0.02610    0.08587   1.00
O2       -0.07161   0.08695    0.11181   1.00
O2       0.87978    0.99538    0.15110   1.00
O2       0.01926    0.12587    0.15071   1.00
O2       0.91305    0.84144    0.11181   1.00
O2       0.87413    0.89340    0.15071   1.00
O2       0.00462    0.88441    0.15110   1.00
O2       0.15856    0.07161    0.11181   1.00
O2       0.11559    0.12022    0.15110   1.00
O2       0.10660    0.98074    0.15071   1.00
C1       -0.06020   0.08610    0.09358   1.00
C1       0.91390    0.85370    0.09358   1.00
C1       0.14630    0.06020    0.09358   1.00
C1       0.85603    0.93337    0.15673   1.00
C1       0.07733    0.14397    0.15673   1.00
C1       0.06663    0.92267    0.15673   1.00
O1       0.66667    0.33333    0.95833   1.00
Zn      0.66667    0.33333    0.92922   1.00
Zn      0.61515    0.37621    0.96725   1.00
Zn      0.76106    0.38485    0.96725   1.00
Zn      -0.37621   0.23894    0.96725   1.00
O2       0.60527    0.35943    0.91920   1.00
O2       0.75417    0.39473    0.91920   1.00
O2       0.64057    0.24583    0.91920   1.00
O2       0.57972    0.40494    0.94514   1.00
O2       0.67129    0.45355    0.98443   1.00
O2       0.54080    0.31407    0.98404   1.00
O2       0.82523    0.42028    0.94514   1.00
O2       0.77327    0.45920    0.98404   1.00
O2       -0.21774   0.32871    0.98443   1.00
O2       0.59506    0.17477    0.94514   1.00
O2       0.54645    0.21774    0.98443   1.00
O2       -0.31407   0.22673    0.98404   1.00
C1       0.58057    0.39353    0.92691   1.00
C1       0.81297    0.41943    0.92691   1.00
C1       0.60647    0.18703    0.92691   1.00
C1       0.73330    0.47730    0.99006   1.00
C1       0.52270    0.25600    0.99006   1.00
C1       -0.25600   0.26670    0.99006   1.00
O1       0.66667    0.33333    0.20833   1.00
Zn      0.66667    0.33333    0.23744   1.00
Zn      0.70954    0.28182    0.19942   1.00
Zn      0.71818    0.42773    0.19942   1.00
Zn      0.57227    0.29046    0.19942   1.00
O2       0.69277    0.27193    0.24746   1.00
O2       0.72807    0.42083    0.24746   1.00
O2       0.57917    0.30723    0.24746   1.00
O2       0.73828    0.24638    0.22152   1.00
O2       0.78688    0.33796    0.18224   1.00
O2       0.64740    0.20747    0.18263   1.00
O2       0.75362    0.49189    0.22152   1.00
O2       0.79253    0.43994    0.18263   1.00
O2       0.66204    0.44893    0.18224   1.00
O2       0.50811    0.26172    0.22152   1.00
O2       0.55107    0.21312    0.18224   1.00
O2       0.56006    0.35260    0.18263   1.00
C1       0.72687    0.24723    0.23975   1.00
C1       0.75277    0.47963    0.23975   1.00
C1       0.52037    0.27313    0.23975   1.00
C1       0.81063    0.39997    0.17661   1.00
C1       0.58933    0.18937    0.17661   1.00
C1       0.60003    0.41067    0.17661   1.00
O1       0.66667    0.33333    0.70833   1.00
Zn      0.66667    0.33333    0.73744   1.00
Zn      0.71818    0.29046    0.69942   1.00
Zn      0.57227    0.28182    0.69942   1.00
Zn      0.70954    0.42773    0.69942   1.00
O2       0.72807    0.30723    0.74746   1.00
O2       0.57917    0.27193    0.74746   1.00
O2       0.69277    0.42083    0.74746   1.00
O2       0.75362    0.26172    0.72152   1.00
O2       0.66204    0.21312    0.68224   1.00
O2       0.79253    0.35260    0.68263   1.00
O2       0.50811    0.24638    0.72152   1.00
O2       0.56006    0.20747    0.68263   1.00
O2       0.55107    0.33796    0.68224   1.00
O2       0.73828    0.49189    0.72152   1.00
O2       0.78688    0.44893    0.68224   1.00
O2       0.64740    0.43994    0.68263   1.00
C1       0.75277    0.27313    0.73975   1.00
C1       0.52037    0.24723    0.73975   1.00
C1       0.72687    0.47963    0.73975   1.00
C1       0.60003    0.18937    0.67661   1.00
C1       0.81063    0.41067    0.67661   1.00
C1       0.58933    0.39997    0.67661   1.00
O1       0.66667    0.33333    0.45833   1.00
Zn      0.66667    0.33333    0.42922   1.00
Zn      -0.37621   0.38485    0.46725   1.00
Zn      0.61515    0.23894    0.46725   1.00
Zn      0.76106    0.37621    0.46725   1.00
O2       0.64057    0.39473    0.41920   1.00
O2       0.60527    0.24583    0.41920   1.00
O2       0.75417    0.35943    0.41920   1.00
O2       0.59506    0.42028    0.44514   1.00
O2       0.54645    0.32871    0.48443   1.00
O2       -0.31407   0.45920    0.48404   1.00
O2       0.57972    0.17477    0.44514   1.00
O2       0.54080    0.22673    0.48404   1.00
O2       0.67129    0.21774    0.48443   1.00
O2       0.82523    0.40494    0.44514   1.00
O2       -0.21774   0.45355    0.48443   1.00
O2       0.77327    0.31407    0.48404   1.00
C1       0.60647    0.41943    0.42691   1.00
C1       0.58057    0.18703    0.42691   1.00
C1       0.81297    0.39353    0.42691   1.00
C1       0.52270    0.26670    0.49006   1.00
C1       -0.25600   0.47730    0.49006   1.00
C1       0.73330    0.25600    0.49006   1.00
O1       0.33333    0.66667    0.29167   1.00
Zn      0.33333    0.66667    0.26256   1.00
Zn      0.28182    0.70954    0.30058   1.00
Zn      0.42773    0.71818    0.30058   1.00
Zn      0.29046    0.57227    0.30058   1.00
O2       0.27193    0.69277    0.25254   1.00
O2       0.42083    0.72807    0.25254   1.00
O2       0.30723    0.57917    0.25254   1.00
O2       0.24638    0.73828    0.27848   1.00
O2       0.33796    0.78688    0.31776   1.00
O2       0.20747    0.64740    0.31737   1.00
O2       0.49189    0.75362    0.27848   1.00
O2       0.43994    0.79253    0.31737   1.00
O2       0.44893    0.66204    0.31776   1.00
O2       0.26172    0.50811    0.27848   1.00
O2       0.21312    0.55107    0.31776   1.00
O2       0.35260    0.56006    0.31737   1.00
C1       0.24723    0.72687    0.26025   1.00
C1       0.47963    0.75277    0.26025   1.00
C1       0.27313    0.52037    0.26025   1.00
C1       0.39997    0.81063    0.32339   1.00
C1       0.18937    0.58933    0.32339   1.00
C1       0.41067    0.60003    0.32339   1.00
O1       0.33333    0.66667    0.54167   1.00
Zn      0.33333    0.66667    0.57078   1.00
Zn      0.37621    0.61515    0.53275   1.00
Zn      0.38485    0.76106    0.53275   1.00
Zn      0.23894    -0.37621   0.53275   1.00
O2       0.35943    0.60527    0.58080   1.00
O2       0.39473    0.75417    0.58080   1.00
O2       0.24583    0.64057    0.58080   1.00
O2       0.40494    0.57972    0.55486   1.00
O2       0.45355    0.67129    0.51557   1.00
O2       0.31407    0.54080    0.51596   1.00
O2       0.42028    0.82523    0.55486   1.00
O2       0.45920    0.77327    0.51596   1.00
O2       0.32871    -0.21774   0.51557   1.00
O2       0.17477    0.59506    0.55486   1.00
O2       0.21774    0.54645    0.51557   1.00
O2       0.22673    -0.31407   0.51596   1.00
C1       0.39353    0.58057    0.57309   1.00
C1       0.41943    0.81297    0.57309   1.00
C1       0.18703    0.60647    0.57309   1.00
C1       0.47730    0.73330    0.50994   1.00
C1       0.25600    0.52270    0.50994   1.00
C1       0.26670    -0.25600   0.50994   1.00
O1       0.33333    0.66667    0.04167   1.00
Zn      0.33333    0.66667    0.07078   1.00
Zn      0.38485    -0.37621   0.03275   1.00
Zn      0.23894    0.61515    0.03275   1.00
Zn      0.37621    0.76106    0.03275   1.00
O2       0.39473    0.64057    0.08080   1.00
O2       0.24583    0.60527    0.08080   1.00
O2       0.35943    0.75417    0.08080   1.00
O2       0.42028    0.59506    0.05486   1.00
O2       0.32871    0.54645    0.01557   1.00
O2       0.45920    -0.31407   0.01596   1.00
O2       0.17477    0.57972    0.05486   1.00
O2       0.22673    0.54080    0.01596   1.00
O2       0.21774    0.67129    0.01557   1.00
O2       0.40494    0.82523    0.05486   1.00
O2       0.45355    -0.21774   0.01557   1.00
O2       0.31407    0.77327    0.01596   1.00
C1       0.41943    0.60647    0.07309   1.00
C1       0.18703    0.58057    0.07309   1.00
C1       0.39353    0.81297    0.07309   1.00
C1       0.26670    0.52270    0.00994   1.00
C1       0.47730    -0.25600   0.00994   1.00
C1       0.25600    0.73330    0.00994   1.00
O1       0.33333    0.66667    0.79167   1.00
Zn      0.33333    0.66667    0.76256   1.00
Zn      0.29046    0.71818    0.80058   1.00
Zn      0.28182    0.57227    0.80058   1.00
Zn      0.42773    0.70954    0.80058   1.00
O2       0.30723    0.72807    0.75254   1.00
O2       0.27193    0.57917    0.75254   1.00
O2       0.42083    0.69277    0.75254   1.00
O2       0.26172    0.75362    0.77848   1.00
O2       0.21312    0.66204    0.81776   1.00
O2       0.35260    0.79253    0.81737   1.00
O2       0.24638    0.50811    0.77848   1.00
O2       0.20747    0.56006    0.81737   1.00
O2       0.33796    0.55107    0.81776   1.00
O2       0.49189    0.73828    0.77848   1.00
O2       0.44893    0.78688    0.81776   1.00
O2       0.43994    0.64740    0.81737   1.00
C1       0.27313    0.75277    0.76025   1.00
C1       0.24723    0.52037    0.76025   1.00
C1       0.47963    0.72687    0.76025   1.00
C1       0.18937    0.60003    0.82339   1.00
C1       0.41067    0.81063    0.82339   1.00
C1       0.39997    0.58933    0.82339   1.00
C2       -0.22580   0.53210    0.50635   1.00
C3       -0.25980   0.56170    0.51324   1.00
H1       -0.30380   0.54640    0.50851   1.00
C3       -0.16230   0.55400    0.51380   1.00
H1       -0.13800   0.53330    0.50941   1.00
C3a      -0.23250   0.61400    0.52713   1.00
H1       -0.25635   0.63461    0.53200   1.00
C3b      -0.13290   0.60620    0.52781   1.00
H1       -0.08981   0.62026    0.53310   1.00
C6       -0.16850   0.63610    0.53494   1.00
C6       -0.13780   0.69140    0.55020   1.00
C3c      -0.14960   0.67660    0.57067   1.00
H1       -0.17244   0.63148    0.57500   1.00
C3d      -0.09850   0.75790    0.54324   1.00
H1       -0.09012   0.76969    0.52961   1.00
C3       -0.12280   0.72980    0.58450   1.00
H1       -0.12970   0.72000    0.59831   1.00
C3       -0.07390   0.81040    0.55847   1.00
H1       -0.04840   0.85560    0.55441   1.00
C2       -0.08630   0.79640    0.57845   1.00
C2       0.46790    0.24210    0.50635   1.00
C3       0.43830    0.17850    0.51324   1.00
H1       0.45360    0.14980    0.50851   1.00
C3       0.44600    0.28370    0.51380   1.00
H1       0.46670    0.32870    0.50941   1.00
C3a      0.38600    0.15350    0.52713   1.00
H1       0.36539    0.10905    0.53200   1.00
C3b      0.39380    0.26090    0.52781   1.00
H1       0.37974    0.28992    0.53310   1.00
C6       0.36390    0.19540    0.53494   1.00
C6       0.30860    0.17080    0.55020   1.00
C3c      0.32340    0.17380    0.57067   1.00
H1       0.36852    0.19608    0.57500   1.00
C3d      0.24210    0.14360    0.54324   1.00
H1       0.23031    0.14020    0.52961   1.00
C3       0.27020    0.14740    0.58450   1.00
H1       0.28000    0.15030    0.59831   1.00
C3       0.18960    0.11570    0.55847   1.00
H1       0.14440    0.09600    0.55441   1.00
C2       0.20360    0.11730    0.57845   1.00
C2       0.75790    0.22580    0.50635   1.00
C3       0.82150    0.25980    0.51324   1.00
H1       0.85020    0.30380    0.50851   1.00
C3       0.71630    0.16230    0.51380   1.00
H1       0.67130    0.13800    0.50941   1.00
C3a      0.84650    0.23250    0.52713   1.00
H1       0.89095    0.25635    0.53200   1.00
C3b      0.73910    0.13290    0.52781   1.00
H1       0.71008    0.08981    0.53310   1.00
C6       0.80460    0.16850    0.53494   1.00
C6       0.82920    0.13780    0.55020   1.00
C3c      0.82620    0.14960    0.57067   1.00
H1       0.80392    0.17244    0.57500   1.00
C3d      0.85640    0.09850    0.54324   1.00
H1       0.85980    0.09012    0.52961   1.00
C3       0.85260    0.12280    0.58450   1.00
H1       0.84970    0.12970    0.59831   1.00
C3       0.88430    0.07390    0.55847   1.00
H1       0.90400    0.04840    0.55441   1.00
C2       0.88270    0.08630    0.57845   1.00
C2       0.53210    -0.22580   0.99365   1.00
C3       0.56170    -0.25980   0.98676   1.00
H1       0.54640    -0.30380   0.99149   1.00
C3       0.55400    -0.16230   0.98620   1.00
H1       0.53330    -0.13800   0.99059   1.00
C3a      0.61400    -0.23250   0.97287   1.00
H1       0.63461    -0.25635   0.96800   1.00
C3b      0.60620    -0.13290   0.97219   1.00
H1       0.62026    -0.08981   0.96690   1.00
C6       0.63610    -0.16850   0.96506   1.00
C6       0.69140    -0.13780   0.94980   1.00
C3c      0.67660    -0.14960   0.92933   1.00
H1       0.63148    -0.17244   0.92500   1.00
C3d      0.75790    -0.09850   0.95676   1.00
H1       0.76969    -0.09012   0.97039   1.00
C3       0.72980    -0.12280   0.91550   1.00
H1       0.72000    -0.12970   0.90169   1.00
C3       0.81040    -0.07390   0.94153   1.00
H1       0.85560    -0.04840   0.94559   1.00
C2       0.79640    -0.08630   0.92155   1.00
C2       0.24210    0.46790    0.99365   1.00
C3       0.17850    0.43830    0.98676   1.00
H1       0.14980    0.45360    0.99149   1.00
C3       0.28370    0.44600    0.98620   1.00
H1       0.32870    0.46670    0.99059   1.00
C3a      0.15350    0.38600    0.97287   1.00
H1       0.10905    0.36539    0.96800   1.00
C3b      0.26090    0.39380    0.97219   1.00
H1       0.28992    0.37974    0.96690   1.00
C6       0.19540    0.36390    0.96506   1.00
C6       0.17080    0.30860    0.94980   1.00
C3c      0.17380    0.32340    0.92933   1.00
H1       0.19608    0.36852    0.92500   1.00
C3d      0.14360    0.24210    0.95676   1.00
H1       0.14020    0.23031    0.97039   1.00
C3       0.14740    0.27020    0.91550   1.00
H1       0.15030    0.28000    0.90169   1.00
C3       0.11570    0.18960    0.94153   1.00
H1       0.09600    0.14440    0.94559   1.00
C2       0.11730    0.20360    0.92155   1.00
C2       0.22580    0.75790    0.99365   1.00
C3       0.25980    0.82150    0.98676   1.00
H1       0.30380    0.85020    0.99149   1.00
C3       0.16230    0.71630    0.98620   1.00
H1       0.13800    0.67130    0.99059   1.00
C3a      0.23250    0.84650    0.97287   1.00
H1       0.25635    0.89095    0.96800   1.00
C3b      0.13290    0.73910    0.97219   1.00
H1       0.08981    0.71008    0.96690   1.00
C6       0.16850    0.80460    0.96506   1.00
C6       0.13780    0.82920    0.94980   1.00
C3c      0.14960    0.82620    0.92933   1.00
H1       0.17244    0.80392    0.92500   1.00
C3d      0.09850    0.85640    0.95676   1.00
H1       0.09012    0.85980    0.97039   1.00
C3       0.12280    0.85260    0.91550   1.00
H1       0.12970    0.84970    0.90169   1.00
C3       0.07390    0.88430    0.94153   1.00
H1       0.04840    0.90400    0.94559   1.00
C2       0.08630    0.88270    0.92155   1.00
C2       0.22580    0.46790    0.49365   1.00
C3       0.25980    0.43830    0.48676   1.00
H1       0.30380    0.45360    0.49149   1.00
C3       0.16230    0.44600    0.48620   1.00
H1       0.13800    0.46670    0.49059   1.00
C3a      0.23250    0.38600    0.47287   1.00
H1       0.25635    0.36539    0.46800   1.00
C3b      0.13290    0.39380    0.47219   1.00
H1       0.08981    0.37974    0.46690   1.00
C6       0.16850    0.36390    0.46506   1.00
C6       0.13780    0.30860    0.44980   1.00
C3c      0.14960    0.32340    0.42933   1.00
H1       0.17244    0.36852    0.42500   1.00
C3d      0.09850    0.24210    0.45676   1.00
H1       0.09012    0.23031    0.47039   1.00
C3       0.12280    0.27020    0.41550   1.00
H1       0.12970    0.28000    0.40169   1.00
C3       0.07390    0.18960    0.44153   1.00
H1       0.04840    0.14440    0.44559   1.00
C2       0.08630    0.20360    0.42155   1.00
C2       0.53210    0.75790    0.49365   1.00
C3       0.56170    0.82150    0.48676   1.00
H1       0.54640    0.85020    0.49149   1.00
C3       0.55400    0.71630    0.48620   1.00
H1       0.53330    0.67130    0.49059   1.00
C3a      0.61400    0.84650    0.47287   1.00
H1       0.63461    0.89095    0.46800   1.00
C3b      0.60620    0.73910    0.47219   1.00
H1       0.62026    0.71008    0.46690   1.00
C6       0.63610    0.80460    0.46506   1.00
C6       0.69140    0.82920    0.44980   1.00
C3c      0.67660    0.82620    0.42933   1.00
H1       0.63148    0.80392    0.42500   1.00
C3d      0.75790    0.85640    0.45676   1.00
H1       0.76969    0.85980    0.47039   1.00
C3       0.72980    0.85260    0.41550   1.00
H1       0.72000    0.84970    0.40169   1.00
C3       0.81040    0.88430    0.44153   1.00
H1       0.85560    0.90400    0.44559   1.00
C2       0.79640    0.88270    0.42155   1.00
C2       0.24210    -0.22580   0.49365   1.00
C3       0.17850    -0.25980   0.48676   1.00
H1       0.14980    -0.30380   0.49149   1.00
C3       0.28370    -0.16230   0.48620   1.00
H1       0.32870    -0.13800   0.49059   1.00
C3a      0.15350    -0.23250   0.47287   1.00
H1       0.10905    -0.25635   0.46800   1.00
C3b      0.26090    -0.13290   0.47219   1.00
H1       0.28992    -0.08981   0.46690   1.00
C6       0.19540    -0.16850   0.46506   1.00
C6       0.17080    -0.13780   0.44980   1.00
C3c      0.17380    -0.14960   0.42933   1.00
H1       0.19608    -0.17244   0.42500   1.00
C3d      0.14360    -0.09850   0.45676   1.00
H1       0.14020    -0.09012   0.47039   1.00
C3       0.14740    -0.12280   0.41550   1.00
H1       0.15030    -0.12970   0.40169   1.00
C3       0.11570    -0.07390   0.44153   1.00
H1       0.09600    -0.04840   0.44559   1.00
C2       0.11730    -0.08630   0.42155   1.00
C2       0.46790    0.22580    0.00635   1.00
C3       0.43830    0.25980    0.01324   1.00
H1       0.45360    0.30380    0.00851   1.00
C3       0.44600    0.16230    0.01380   1.00
H1       0.46670    0.13800    0.00941   1.00
C3a      0.38600    0.23250    0.02713   1.00
H1       0.36539    0.25635    0.03200   1.00
C3b      0.39380    0.13290    0.02781   1.00
H1       0.37974    0.08981    0.03310   1.00
C6       0.36390    0.16850    0.03494   1.00
C6       0.30860    0.13780    0.05020   1.00
C3c      0.32340    0.14960    0.07067   1.00
H1       0.36852    0.17244    0.07500   1.00
C3d      0.24210    0.09850    0.04324   1.00
H1       0.23031    0.09012    0.02961   1.00
C3       0.27020    0.12280    0.08450   1.00
H1       0.28000    0.12970    0.09831   1.00
C3       0.18960    0.07390    0.05847   1.00
H1       0.14440    0.04840    0.05441   1.00
C2       0.20360    0.08630    0.07845   1.00
C2       0.75790    0.53210    0.00635   1.00
C3       0.82150    0.56170    0.01324   1.00
H1       0.85020    0.54640    0.00851   1.00
C3       0.71630    0.55400    0.01380   1.00
H1       0.67130    0.53330    0.00941   1.00
C3a      0.84650    0.61400    0.02713   1.00
H1       0.89095    0.63461    0.03200   1.00
C3b      0.73910    0.60620    0.02781   1.00
H1       0.71008    0.62026    0.03310   1.00
C6       0.80460    0.63610    0.03494   1.00
C6       0.82920    0.69140    0.05020   1.00
C3c      0.82620    0.67660    0.07067   1.00
H1       0.80392    0.63148    0.07500   1.00
C3d      0.85640    0.75790    0.04324   1.00
H1       0.85980    0.76969    0.02961   1.00
C3       0.85260    0.72980    0.08450   1.00
H1       0.84970    0.72000    0.09831   1.00
C3       0.88430    0.81040    0.05847   1.00
H1       0.90400    0.85560    0.05441   1.00
C2       0.88270    0.79640    0.07845   1.00
C2       -0.22580   0.24210    0.00635   1.00
C3       -0.25980   0.17850    0.01324   1.00
H1       -0.30380   0.14980    0.00851   1.00
C3       -0.16230   0.28370    0.01380   1.00
H1       -0.13800   0.32870    0.00941   1.00
C3a      -0.23250   0.15350    0.02713   1.00
H1       -0.25635   0.10905    0.03200   1.00
C3b      -0.13290   0.26090    0.02781   1.00
H1       -0.08981   0.28992    0.03310   1.00
C6       -0.16850   0.19540    0.03494   1.00
C6       -0.13780   0.17080    0.05020   1.00
C3c      -0.14960   0.17380    0.07067   1.00
H1       -0.17244   0.19608    0.07500   1.00
C3d      -0.09850   0.14360    0.04324   1.00
H1       -0.09012   0.14020    0.02961   1.00
C3       -0.12280   0.14740    0.08450   1.00
H1       -0.12970   0.15030    0.09831   1.00
C3       -0.07390   0.11570    0.05847   1.00
H1       -0.04840   0.09600    0.05441   1.00
C2       -0.08630   0.11730    0.07845   1.00
C2       0.44087    0.86543    0.83968   1.00
C3       0.40687    0.89503    0.84657   1.00
H1       0.36287    0.87973    0.84184   1.00
C3       0.50437    0.88733    0.84713   1.00
H1       0.52867    0.86663    0.84274   1.00
C3a      0.43417    0.94733    0.86046   1.00
H1       0.41032    0.96794    0.86533   1.00
C3b      0.53377    0.93953    0.86114   1.00
H1       0.57686    0.95359    0.86643   1.00
C6       0.49817    0.96943    0.86827   1.00
C6       0.52887    0.02473    0.88353   1.00
C3c      0.51707    0.00993    0.90400   1.00
H1       0.49423    -0.03519   0.90833   1.00
C3d      0.56817    0.09123    0.87657   1.00
H1       0.57655    0.10302    0.86294   1.00
C3       0.54387    0.06313    0.91783   1.00
H1       0.53697    0.05333    0.93164   1.00
C3       0.59277    0.14373    0.89180   1.00
H1       0.61827    0.18893    0.88774   1.00
C2       0.58037    0.12973    0.91178   1.00
C2       0.13457    0.57543    0.83968   1.00
C3       0.10497    0.51183    0.84657   1.00
H1       0.12027    0.48313    0.84184   1.00
C3       0.11267    0.61703    0.84713   1.00
H1       0.13337    0.66203    0.84274   1.00
C3a      0.05267    0.48683    0.86046   1.00
H1       0.03206    0.44238    0.86533   1.00
C3b      0.06047    0.59423    0.86114   1.00
H1       0.04641    0.62325    0.86643   1.00
C6       0.03057    0.52873    0.86827   1.00
C6       0.97527    0.50413    0.88353   1.00
C3c      0.99007    0.50713    0.90400   1.00
H1       1.03519    0.52941    0.90833   1.00
C3d      0.90877    0.47693    0.87657   1.00
H1       0.89698    0.47353    0.86294   1.00
C3       0.93687    0.48073    0.91783   1.00
H1       0.94667    0.48363    0.93164   1.00
C3       0.85627    0.44903    0.89180   1.00
H1       0.81107    0.42933    0.88774   1.00
C2       0.87027    0.45063    0.91178   1.00
C2       0.42457    0.55913    0.83968   1.00
C3       0.48817    0.59313    0.84657   1.00
H1       0.51687    0.63713    0.84184   1.00
C3       0.38297    0.49563    0.84713   1.00
H1       0.33797    0.47133    0.84274   1.00
C3a      0.51317    0.56583    0.86046   1.00
H1       0.55762    0.58968    0.86533   1.00
C3b      0.40577    0.46623    0.86114   1.00
H1       0.37675    0.42314    0.86643   1.00
C6       0.47127    0.50183    0.86827   1.00
C6       0.49587    0.47113    0.88353   1.00
C3c      0.49287    0.48293    0.90400   1.00
H1       0.47059    0.50577    0.90833   1.00
C3d      0.52307    0.43183    0.87657   1.00
H1       0.52647    0.42345    0.86294   1.00
C3       0.51927    0.45613    0.91783   1.00
H1       0.51637    0.46303    0.93164   1.00
C3       0.55097    0.40723    0.89180   1.00
H1       0.57067    0.38173    0.88774   1.00
C2       0.54937    0.41963    0.91178   1.00
C2       0.19877    0.10753    0.32698   1.00
C3       0.22837    0.07353    0.32009   1.00
H1       0.21307    0.02953    0.32482   1.00
C3       0.22067    0.17103    0.31953   1.00
H1       0.19997    0.19533    0.32392   1.00
C3a      0.28067    0.10083    0.30620   1.00
H1       0.30128    0.07698    0.30133   1.00
C3b      0.27287    0.20043    0.30552   1.00
H1       0.28693    0.24352    0.30023   1.00
C6       0.30277    0.16483    0.29839   1.00
C6       0.35807    0.19553    0.28313   1.00
C3c      0.34327    0.18373    0.26266   1.00
H1       0.29815    0.16089    0.25833   1.00
C3d      0.42457    0.23483    0.29009   1.00
H1       0.43636    0.24321    0.30372   1.00
C3       0.39647    0.21053    0.24883   1.00
H1       0.38667    0.20363    0.23502   1.00
C3       0.47707    0.25943    0.27486   1.00
H1       0.52227    0.28493    0.27892   1.00
C2       0.46307    0.24703    0.25488   1.00
C2       0.90877    0.80123    0.32698   1.00
C3       0.84517    0.77163    0.32009   1.00
H1       0.81647    0.78693    0.32482   1.00
C3       0.95037    0.77933    0.31953   1.00
H1       0.99537    0.80003    0.32392   1.00
C3a      0.82017    0.71933    0.30620   1.00
H1       0.77572    0.69872    0.30133   1.00
C3b      0.92757    0.72713    0.30552   1.00
H1       0.95659    0.71307    0.30023   1.00
C6       0.86207    0.69723    0.29839   1.00
C6       0.83747    0.64193    0.28313   1.00
C3c      0.84047    0.65673    0.26266   1.00
H1       0.86275    0.70185    0.25833   1.00
C3d      0.81027    0.57543    0.29009   1.00
H1       0.80687    0.56364    0.30372   1.00
C3       0.81407    0.60353    0.24883   1.00
H1       0.81697    0.61333    0.23502   1.00
C3       0.78237    0.52293    0.27486   1.00
H1       0.76267    0.47773    0.27892   1.00
C2       0.78397    0.53693    0.25488   1.00
C2       0.89247    0.09123    0.32698   1.00
C3       0.92647    0.15483    0.32009   1.00
H1       0.97047    0.18353    0.32482   1.00
C3       0.82897    0.04963    0.31953   1.00
H1       0.80467    0.00463    0.32392   1.00
C3a      0.89917    0.17983    0.30620   1.00
H1       0.92302    0.22428    0.30133   1.00
C3b      0.79957    0.07243    0.30552   1.00
H1       0.75648    0.04341    0.30023   1.00
C6       0.83517    0.13793    0.29839   1.00
C6       0.80447    0.16253    0.28313   1.00
C3c      0.81627    0.15953    0.26266   1.00
H1       0.83911    0.13725    0.25833   1.00
C3d      0.76517    0.18973    0.29009   1.00
H1       0.75679    0.19313    0.30372   1.00
C3       0.78947    0.18593    0.24883   1.00
H1       0.79637    0.18303    0.23502   1.00
C3       0.74057    0.21763    0.27486   1.00
H1       0.71507    0.23733    0.27892   1.00
C2       0.75297    0.21603    0.25488   1.00
C2       0.89247    0.80123    0.82698   1.00
C3       0.92647    0.77163    0.82009   1.00
H1       0.97047    0.78693    0.82482   1.00
C3       0.82897    0.77933    0.81953   1.00
H1       0.80467    0.80003    0.82392   1.00
C3a      0.89917    0.71933    0.80620   1.00
H1       0.92302    0.69872    0.80133   1.00
C3b      0.79957    0.72713    0.80552   1.00
H1       0.75648    0.71307    0.80023   1.00
C6       0.83517    0.69723    0.79839   1.00
C6       0.80447    0.64193    0.78313   1.00
C3c      0.81627    0.65673    0.76266   1.00
H1       0.83911    0.70185    0.75833   1.00
C3d      0.76517    0.57543    0.79009   1.00
H1       0.75679    0.56364    0.80372   1.00
C3       0.78947    0.60353    0.74883   1.00
H1       0.79637    0.61333    0.73502   1.00
C3       0.74057    0.52293    0.77486   1.00
H1       0.71507    0.47773    0.77892   1.00
C2       0.75297    0.53693    0.75488   1.00
C2       0.19877    0.09123    0.82698   1.00
C3       0.22837    0.15483    0.82009   1.00
H1       0.21307    0.18353    0.82482   1.00
C3       0.22067    0.04963    0.81953   1.00
H1       0.19997    0.00463    0.82392   1.00
C3a      0.28067    0.17983    0.80620   1.00
H1       0.30128    0.22428    0.80133   1.00
C3b      0.27287    0.07243    0.80552   1.00
H1       0.28693    0.04341    0.80023   1.00
C6       0.30277    0.13793    0.79839   1.00
C6       0.35807    0.16253    0.78313   1.00
C3c      0.34327    0.15953    0.76266   1.00
H1       0.29815    0.13725    0.75833   1.00
C3d      0.42457    0.18973    0.79009   1.00
H1       0.43636    0.19313    0.80372   1.00
C3       0.39647    0.18593    0.74883   1.00
H1       0.38667    0.18303    0.73502   1.00
C3       0.47707    0.21763    0.77486   1.00
H1       0.52227    0.23733    0.77892   1.00
C2       0.46307    0.21603    0.75488   1.00
C2       0.90877    0.10753    0.82698   1.00
C3       0.84517    0.07353    0.82009   1.00
H1       0.81647    0.02953    0.82482   1.00
C3       0.95037    0.17103    0.81953   1.00
H1       0.99537    0.19533    0.82392   1.00
C3a      0.82017    0.10083    0.80620   1.00
H1       0.77572    0.07698    0.80133   1.00
C3b      0.92757    0.20043    0.80552   1.00
H1       0.95659    0.24352    0.80023   1.00
C6       0.86207    0.16483    0.79839   1.00
C6       0.83747    0.19553    0.78313   1.00
C3c      0.84047    0.18373    0.76266   1.00
H1       0.86275    0.16089    0.75833   1.00
C3d      0.81027    0.23483    0.79009   1.00
H1       0.80687    0.24321    0.80372   1.00
C3       0.81407    0.21053    0.74883   1.00
H1       0.81697    0.20363    0.73502   1.00
C3       0.78237    0.25943    0.77486   1.00
H1       0.76267    0.28493    0.77892   1.00
C2       0.78397    0.24703    0.75488   1.00
C2       0.13457    0.55913    0.33968   1.00
C3       0.10497    0.59313    0.34657   1.00
H1       0.12027    0.63713    0.34184   1.00
C3       0.11267    0.49563    0.34713   1.00
H1       0.13337    0.47133    0.34274   1.00
C3a      0.05267    0.56583    0.36046   1.00
H1       0.03206    0.58968    0.36533   1.00
C3b      0.06047    0.46623    0.36114   1.00
H1       0.04641    0.42314    0.36643   1.00
C6       0.03057    0.50183    0.36827   1.00
C6       0.97527    0.47113    0.38353   1.00
C3c      0.99007    0.48293    0.40400   1.00
H1       1.03519    0.50577    0.40833   1.00
C3d      0.90877    0.43183    0.37657   1.00
H1       0.89698    0.42345    0.36294   1.00
C3       0.93687    0.45613    0.41783   1.00
H1       0.94667    0.46303    0.43164   1.00
C3       0.85627    0.40723    0.39180   1.00
H1       0.81107    0.38173    0.38774   1.00
C2       0.87027    0.41963    0.41178   1.00
C2       0.42457    0.86543    0.33968   1.00
C3       0.48817    0.89503    0.34657   1.00
H1       0.51687    0.87973    0.34184   1.00
C3       0.38297    0.88733    0.34713   1.00
H1       0.33797    0.86663    0.34274   1.00
C3a      0.51317    0.94733    0.36046   1.00
H1       0.55762    0.96794    0.36533   1.00
C3b      0.40577    0.93953    0.36114   1.00
H1       0.37675    0.95359    0.36643   1.00
C6       0.47127    0.96943    0.36827   1.00
C6       0.49587    0.02473    0.38353   1.00
C3c      0.49287    0.00993    0.40400   1.00
H1       0.47059    -0.03519   0.40833   1.00
C3d      0.52307    0.09123    0.37657   1.00
H1       0.52647    0.10302    0.36294   1.00
C3       0.51927    0.06313    0.41783   1.00
H1       0.51637    0.05333    0.43164   1.00
C3       0.55097    0.14373    0.39180   1.00
H1       0.57067    0.18893    0.38774   1.00
C2       0.54937    0.12973    0.41178   1.00
C2       0.44087    0.57543    0.33968   1.00
C3       0.40687    0.51183    0.34657   1.00
H1       0.36287    0.48313    0.34184   1.00
C3       0.50437    0.61703    0.34713   1.00
H1       0.52867    0.66203    0.34274   1.00
C3a      0.43417    0.48683    0.36046   1.00
H1       0.41032    0.44238    0.36533   1.00
C3b      0.53377    0.59423    0.36114   1.00
H1       0.57686    0.62325    0.36643   1.00
C6       0.49817    0.52873    0.36827   1.00
C6       0.52887    0.50413    0.38353   1.00
C3c      0.51707    0.50713    0.40400   1.00
H1       0.49423    0.52941    0.40833   1.00
C3d      0.56817    0.47693    0.37657   1.00
H1       0.57655    0.47353    0.36294   1.00
C3       0.54387    0.48073    0.41783   1.00
H1       0.53697    0.48363    0.43164   1.00
C3       0.59277    0.44903    0.39180   1.00
H1       0.61827    0.42933    0.38774   1.00
C2       0.58037    0.45063    0.41178   1.00
C2       0.10753    0.19877    0.17302   1.00
C3       0.07353    0.22837    0.17991   1.00
H1       0.02953    0.21307    0.17518   1.00
C3       0.17103    0.22067    0.18047   1.00
H1       0.19533    0.19997    0.17608   1.00
C3a      0.10083    0.28067    0.19380   1.00
H1       0.07698    0.30128    0.19867   1.00
C3b      0.20043    0.27287    0.19448   1.00
H1       0.24352    0.28693    0.19977   1.00
C6       0.16483    0.30277    0.20161   1.00
C6       0.19553    0.35807    0.21687   1.00
C3c      0.18373    0.34327    0.23734   1.00
H1       0.16089    0.29815    0.24167   1.00
C3d      0.23483    0.42457    0.20991   1.00
H1       0.24321    0.43636    0.19628   1.00
C3       0.21053    0.39647    0.25117   1.00
H1       0.20363    0.38667    0.26498   1.00
C3       0.25943    0.47707    0.22514   1.00
H1       0.28493    0.52227    0.22108   1.00
C2       0.24703    0.46307    0.24512   1.00
C2       0.80123    0.90877    0.17302   1.00
C3       0.77163    0.84517    0.17991   1.00
H1       0.78693    0.81647    0.17518   1.00
C3       0.77933    0.95037    0.18047   1.00
H1       0.80003    0.99537    0.17608   1.00
C3a      0.71933    0.82017    0.19380   1.00
H1       0.69872    0.77572    0.19867   1.00
C3b      0.72713    0.92757    0.19448   1.00
H1       0.71307    0.95659    0.19977   1.00
C6       0.69723    0.86207    0.20161   1.00
C6       0.64193    0.83747    0.21687   1.00
C3c      0.65673    0.84047    0.23734   1.00
H1       0.70185    0.86275    0.24167   1.00
C3d      0.57543    0.81027    0.20991   1.00
H1       0.56364    0.80687    0.19628   1.00
C3       0.60353    0.81407    0.25117   1.00
H1       0.61333    0.81697    0.26498   1.00
C3       0.52293    0.78237    0.22514   1.00
H1       0.47773    0.76267    0.22108   1.00
C2       0.53693    0.78397    0.24512   1.00
C2       0.09123    0.89247    0.17302   1.00
C3       0.15483    0.92647    0.17991   1.00
H1       0.18353    0.97047    0.17518   1.00
C3       0.04963    0.82897    0.18047   1.00
H1       0.00463    0.80467    0.17608   1.00
C3a      0.17983    0.89917    0.19380   1.00
H1       0.22428    0.92302    0.19867   1.00
C3b      0.07243    0.79957    0.19448   1.00
H1       0.04341    0.75648    0.19977   1.00
C6       0.13793    0.83517    0.20161   1.00
C6       0.16253    0.80447    0.21687   1.00
C3c      0.15953    0.81627    0.23734   1.00
H1       0.13725    0.83911    0.24167   1.00
C3d      0.18973    0.76517    0.20991   1.00
H1       0.19313    0.75679    0.19628   1.00
C3       0.18593    0.78947    0.25117   1.00
H1       0.18303    0.79637    0.26498   1.00
C3       0.21763    0.74057    0.22514   1.00
H1       0.23733    0.71507    0.22108   1.00
C2       0.21603    0.75297    0.24512   1.00
C2       0.86543    0.44087    0.66032   1.00
C3       0.89503    0.40687    0.65343   1.00
H1       0.87973    0.36287    0.65816   1.00
C3       0.88733    0.50437    0.65287   1.00
H1       0.86663    0.52867    0.65726   1.00
C3a      0.94733    0.43417    0.63954   1.00
H1       0.96794    0.41032    0.63467   1.00
C3b      0.93953    0.53377    0.63886   1.00
H1       0.95359    0.57686    0.63357   1.00
C6       0.96943    0.49817    0.63173   1.00
C6       0.02473    0.52887    0.61647   1.00
C3c      0.00993    0.51707    0.59600   1.00
H1       -0.03519   0.49423    0.59167   1.00
C3d      0.09123    0.56817    0.62343   1.00
H1       0.10302    0.57655    0.63706   1.00
C3       0.06313    0.54387    0.58217   1.00
H1       0.05333    0.53697    0.56836   1.00
C3       0.14373    0.59277    0.60820   1.00
H1       0.18893    0.61827    0.61226   1.00
C2       0.12973    0.58037    0.58822   1.00
C2       0.57543    0.13457    0.66032   1.00
C3       0.51183    0.10497    0.65343   1.00
H1       0.48313    0.12027    0.65816   1.00
C3       0.61703    0.11267    0.65287   1.00
H1       0.66203    0.13337    0.65726   1.00
C3a      0.48683    0.05267    0.63954   1.00
H1       0.44238    0.03206    0.63467   1.00
C3b      0.59423    0.06047    0.63886   1.00
H1       0.62325    0.04641    0.63357   1.00
C6       0.52873    0.03057    0.63173   1.00
C6       0.50413    0.97527    0.61647   1.00
C3c      0.50713    0.99007    0.59600   1.00
H1       0.52941    1.03519    0.59167   1.00
C3d      0.47693    0.90877    0.62343   1.00
H1       0.47353    0.89698    0.63706   1.00
C3       0.48073    0.93687    0.58217   1.00
H1       0.48363    0.94667    0.56836   1.00
C3       0.44903    0.85627    0.60820   1.00
H1       0.42933    0.81107    0.61226   1.00
C2       0.45063    0.87027    0.58822   1.00
C2       0.55913    0.42457    0.66032   1.00
C3       0.59313    0.48817    0.65343   1.00
H1       0.63713    0.51687    0.65816   1.00
C3       0.49563    0.38297    0.65287   1.00
H1       0.47133    0.33797    0.65726   1.00
C3a      0.56583    0.51317    0.63954   1.00
H1       0.58968    0.55762    0.63467   1.00
C3b      0.46623    0.40577    0.63886   1.00
H1       0.42314    0.37675    0.63357   1.00
C6       0.50183    0.47127    0.63173   1.00
C6       0.47113    0.49587    0.61647   1.00
C3c      0.48293    0.49287    0.59600   1.00
H1       0.50577    0.47059    0.59167   1.00
C3d      0.43183    0.52307    0.62343   1.00
H1       0.42345    0.52647    0.63706   1.00
C3       0.45613    0.51927    0.58217   1.00
H1       0.46303    0.51637    0.56836   1.00
C3       0.40723    0.55097    0.60820   1.00
H1       0.38173    0.57067    0.61226   1.00
C2       0.41963    0.54937    0.58822   1.00
C2       0.55913    0.13457    0.16032   1.00
C3       0.59313    0.10497    0.15343   1.00
H1       0.63713    0.12027    0.15816   1.00
C3       0.49563    0.11267    0.15287   1.00
H1       0.47133    0.13337    0.15726   1.00
C3a      0.56583    0.05267    0.13954   1.00
H1       0.58968    0.03206    0.13467   1.00
C3b      0.46623    0.06047    0.13886   1.00
H1       0.42314    0.04641    0.13357   1.00
C6       0.50183    0.03057    0.13173   1.00
C6       0.47113    0.97527    0.11647   1.00
C3c      0.48293    0.99007    0.09600   1.00
H1       0.50577    1.03519    0.09167   1.00
C3d      0.43183    0.90877    0.12343   1.00
H1       0.42345    0.89698    0.13706   1.00
C3       0.45613    0.93687    0.08217   1.00
H1       0.46303    0.94667    0.06836   1.00
C3       0.40723    0.85627    0.10820   1.00
H1       0.38173    0.81107    0.11226   1.00
C2       0.41963    0.87027    0.08822   1.00
C2       0.86543    0.42457    0.16032   1.00
C3       0.89503    0.48817    0.15343   1.00
H1       0.87973    0.51687    0.15816   1.00
C3       0.88733    0.38297    0.15287   1.00
H1       0.86663    0.33797    0.15726   1.00
C3a      0.94733    0.51317    0.13954   1.00
H1       0.96794    0.55762    0.13467   1.00
C3b      0.93953    0.40577    0.13886   1.00
H1       0.95359    0.37675    0.13357   1.00
C6       0.96943    0.47127    0.13173   1.00
C6       0.02473    0.49587    0.11647   1.00
C3c      0.00993    0.49287    0.09600   1.00
H1       -0.03519   0.47059    0.09167   1.00
C3d      0.09123    0.52307    0.12343   1.00
H1       0.10302    0.52647    0.13706   1.00
C3       0.06313    0.51927    0.08217   1.00
H1       0.05333    0.51637    0.06836   1.00
C3       0.14373    0.55097    0.10820   1.00
H1       0.18893    0.57067    0.11226   1.00
C2       0.12973    0.54937    0.08822   1.00
C2       0.57543    0.44087    0.16032   1.00
C3       0.51183    0.40687    0.15343   1.00
H1       0.48313    0.36287    0.15816   1.00
C3       0.61703    0.50437    0.15287   1.00
H1       0.66203    0.52867    0.15726   1.00
C3a      0.48683    0.43417    0.13954   1.00
H1       0.44238    0.41032    0.13467   1.00
C3b      0.59423    0.53377    0.13886   1.00
H1       0.62325    0.57686    0.13357   1.00
C6       0.52873    0.49817    0.13173   1.00
C6       0.50413    0.52887    0.11647   1.00
C3c      0.50713    0.51707    0.09600   1.00
H1       0.52941    0.49423    0.09167   1.00
C3d      0.47693    0.56817    0.12343   1.00
H1       0.47353    0.57655    0.13706   1.00
C3       0.48073    0.54387    0.08217   1.00
H1       0.48363    0.53697    0.06836   1.00
C3       0.44903    0.59277    0.10820   1.00
H1       0.42933    0.61827    0.11226   1.00
C2       0.45063    0.58037    0.08822   1.00
C2       0.80123    0.89247    0.67302   1.00
C3       0.77163    0.92647    0.67991   1.00
H1       0.78693    0.97047    0.67518   1.00
C3       0.77933    0.82897    0.68047   1.00
H1       0.80003    0.80467    0.67608   1.00
C3a      0.71933    0.89917    0.69380   1.00
H1       0.69872    0.92302    0.69867   1.00
C3b      0.72713    0.79957    0.69448   1.00
H1       0.71307    0.75648    0.69977   1.00
C6       0.69723    0.83517    0.70161   1.00
C6       0.64193    0.80447    0.71687   1.00
C3c      0.65673    0.81627    0.73734   1.00
H1       0.70185    0.83911    0.74167   1.00
C3d      0.57543    0.76517    0.70991   1.00
H1       0.56364    0.75679    0.69628   1.00
C3       0.60353    0.78947    0.75117   1.00
H1       0.61333    0.79637    0.76498   1.00
C3       0.52293    0.74057    0.72514   1.00
H1       0.47773    0.71507    0.72108   1.00
C2       0.53693    0.75297    0.74512   1.00
C2       0.09123    0.19877    0.67302   1.00
C3       0.15483    0.22837    0.67991   1.00
H1       0.18353    0.21307    0.67518   1.00
C3       0.04963    0.22067    0.68047   1.00
H1       0.00463    0.19997    0.67608   1.00
C3a      0.17983    0.28067    0.69380   1.00
H1       0.22428    0.30128    0.69867   1.00
C3b      0.07243    0.27287    0.69448   1.00
H1       0.04341    0.28693    0.69977   1.00
C6       0.13793    0.30277    0.70161   1.00
C6       0.16253    0.35807    0.71687   1.00
C3c      0.15953    0.34327    0.73734   1.00
H1       0.13725    0.29815    0.74167   1.00
C3d      0.18973    0.42457    0.70991   1.00
H1       0.19313    0.43636    0.69628   1.00
C3       0.18593    0.39647    0.75117   1.00
H1       0.18303    0.38667    0.76498   1.00
C3       0.21763    0.47707    0.72514   1.00
H1       0.23733    0.52227    0.72108   1.00
C2       0.21603    0.46307    0.74512   1.00
C2       0.10753    0.90877    0.67302   1.00
C3       0.07353    0.84517    0.67991   1.00
H1       0.02953    0.81647    0.67518   1.00
C3       0.17103    0.95037    0.68047   1.00
H1       0.19533    0.99537    0.67608   1.00
C3a      0.10083    0.82017    0.69380   1.00
H1       0.07698    0.77572    0.69867   1.00
C3b      0.20043    0.92757    0.69448   1.00
H1       0.24352    0.95659    0.69977   1.00
C6       0.16483    0.86207    0.70161   1.00
C6       0.19553    0.83747    0.71687   1.00
C3c      0.18373    0.84047    0.73734   1.00
H1       0.16089    0.86275    0.74167   1.00
C3d      0.23483    0.81027    0.70991   1.00
H1       0.24321    0.80687    0.69628   1.00
C3       0.21053    0.81407    0.75117   1.00
H1       0.20363    0.81697    0.76498   1.00
C3       0.25943    0.78237    0.72514   1.00
H1       0.28493    0.76267    0.72108   1.00
C2       0.24703    0.78397    0.74512   1.00
