data_IRMOF10_interpen_symm_ligand3lp_label_k_1.

_audit_creation_method             'generated by an auxiliary program of Tobunporous'

_symmetry_space_group_name_H-M     'P 1'
_symmetry_Int_Tables_number        1
_symmetry_cell_setting             triclinic

_cell_length_a                    22.6523
_cell_length_b                    22.6523
_cell_length_c                    65.9502
_cell_angle_alpha                 90.0000
_cell_angle_beta                  90.0000
_cell_angle_gamma                 120.0000

loop_
_atom_site_label
_atom_site_fract_x
_atom_site_fract_y
_atom_site_fract_z
_atom_site_occupancy
O1       0.00000    -0.00000   0.62500   1.00
Zn1      0.00000    -0.00000   0.59589   1.00
Zn1      0.94848    1.04288    0.63392   1.00
Zn1      0.09439    0.05152    0.63392   1.00
Zn1      -0.04288   0.90561    0.63392   1.00
O2       0.93860    0.02610    0.58587   1.00
O2       0.08750    0.06140    0.58587   1.00
O2       -0.02610   0.91250    0.58587   1.00
O2       0.91305    0.07161    0.61181   1.00
O2       0.00462    0.12022    0.65110   1.00
O2       0.87413    0.98074    0.65071   1.00
O2       0.15856    0.08695    0.61181   1.00
O2       0.10660    0.12587    0.65071   1.00
O2       0.11559    0.99538    0.65110   1.00
O2       -0.07161   0.84144    0.61181   1.00
O2       0.87978    0.88441    0.65110   1.00
O2       0.01926    0.89340    0.65071   1.00
C1       0.91390    0.06020    0.59358   1.00
C1       0.14630    0.08610    0.59358   1.00
C1       -0.06020   0.85370    0.59358   1.00
C1       0.06663    0.14397    0.65673   1.00
C1       0.85603    0.92267    0.65673   1.00
C1       0.07733    0.93337    0.65673   1.00
O1       -0.00000   0.00000    0.87500   1.00
Zn1      -0.00000   0.00000    0.90411   1.00
Zn1      1.04288    0.94848    0.86608   1.00
Zn1      0.05152    0.09439    0.86608   1.00
Zn1      0.90561    -0.04288   0.86608   1.00
O2       0.02610    0.93860    0.91413   1.00
O2       0.06140    0.08750    0.91413   1.00
O2       0.91250    -0.02610   0.91413   1.00
O2       0.07161    0.91305    0.88819   1.00
O2       0.12022    0.00462    0.84890   1.00
O2       0.98074    0.87413    0.84929   1.00
O2       0.08695    0.15856    0.88819   1.00
O2       0.12587    0.10660    0.84929   1.00
O2       0.99538    0.11559    0.84890   1.00
O2       0.84144    -0.07161   0.88819   1.00
O2       0.88441    0.87978    0.84890   1.00
O2       0.89340    0.01926    0.84929   1.00
C1       0.06020    0.91390    0.90642   1.00
C1       0.08610    0.14630    0.90642   1.00
C1       0.85370    -0.06020   0.90642   1.00
C1       0.14397    0.06663    0.84327   1.00
C1       0.92267    0.85603    0.84327   1.00
C1       0.93337    0.07733    0.84327   1.00
O1       0.00000    0.00000    0.37500   1.00
Zn1      0.00000    0.00000    0.40411   1.00
Zn1      0.05152    -0.04288   0.36608   1.00
Zn1      0.90561    0.94848    0.36608   1.00
Zn1      1.04288    0.09439    0.36608   1.00
O2       0.06140    -0.02610   0.41413   1.00
O2       0.91250    0.93860    0.41413   1.00
O2       0.02610    0.08750    0.41413   1.00
O2       0.08695    -0.07161   0.38819   1.00
O2       0.99538    0.87978    0.34890   1.00
O2       0.12587    0.01926    0.34929   1.00
O2       0.84144    0.91305    0.38819   1.00
O2       0.89340    0.87413    0.34929   1.00
O2       0.88441    0.00462    0.34890   1.00
O2       0.07161    0.15856    0.38819   1.00
O2       0.12022    0.11559    0.34890   1.00
O2       0.98074    0.10660    0.34929   1.00
C1       0.08610    -0.06020   0.40642   1.00
C1       0.85370    0.91390    0.40642   1.00
C1       0.06020    0.14630    0.40642   1.00
C1       0.93337    0.85603    0.34327   1.00
C1       0.14397    0.07733    0.34327   1.00
C1       0.92267    0.06663    0.34327   1.00
O1       0.00000    0.00000    0.12500   1.00
Zn1      0.00000    0.00000    0.09589   1.00
Zn1      -0.04288   0.05152    0.13392   1.00
Zn1      0.94848    0.90561    0.13392   1.00
Zn1      0.09439    1.04288    0.13392   1.00
O2       -0.02610   0.06140    0.08587   1.00
O2       0.93860    0.91250    0.08587   1.00
O2       0.08750    0.02610    0.08587   1.00
O2       -0.07161   0.08695    0.11181   1.00
O2       0.87978    0.99538    0.15110   1.00
O2       0.01926    0.12587    0.15071   1.00
O2       0.91305    0.84144    0.11181   1.00
O2       0.87413    0.89340    0.15071   1.00
O2       0.00462    0.88441    0.15110   1.00
O2       0.15856    0.07161    0.11181   1.00
O2       0.11559    0.12022    0.15110   1.00
O2       0.10660    0.98074    0.15071   1.00
C1       -0.06020   0.08610    0.09358   1.00
C1       0.91390    0.85370    0.09358   1.00
C1       0.14630    0.06020    0.09358   1.00
C1       0.85603    0.93337    0.15673   1.00
C1       0.07733    0.14397    0.15673   1.00
C1       0.06663    0.92267    0.15673   1.00
O1       0.66667    0.33333    0.95833   1.00
Zn1      0.66667    0.33333    0.92922   1.00
Zn1      0.61515    0.37621    0.96725   1.00
Zn1      0.76106    0.38485    0.96725   1.00
Zn1      -0.37621   0.23894    0.96725   1.00
O2       0.60527    0.35943    0.91920   1.00
O2       0.75417    0.39473    0.91920   1.00
O2       0.64057    0.24583    0.91920   1.00
O2       0.57972    0.40494    0.94514   1.00
O2       0.67129    0.45355    0.98443   1.00
O2       0.54080    0.31407    0.98404   1.00
O2       0.82523    0.42028    0.94514   1.00
O2       0.77327    0.45920    0.98404   1.00
O2       -0.21774   0.32871    0.98443   1.00
O2       0.59506    0.17477    0.94514   1.00
O2       0.54645    0.21774    0.98443   1.00
O2       -0.31407   0.22673    0.98404   1.00
C1       0.58057    0.39353    0.92691   1.00
C1       0.81297    0.41943    0.92691   1.00
C1       0.60647    0.18703    0.92691   1.00
C1       0.73330    0.47730    0.99006   1.00
C1       0.52270    0.25600    0.99006   1.00
C1       -0.25600   0.26670    0.99006   1.00
O1       0.66667    0.33333    0.20833   1.00
Zn1      0.66667    0.33333    0.23744   1.00
Zn1      0.70954    0.28182    0.19942   1.00
Zn1      0.71818    0.42773    0.19942   1.00
Zn1      0.57227    0.29046    0.19942   1.00
O2       0.69277    0.27193    0.24746   1.00
O2       0.72807    0.42083    0.24746   1.00
O2       0.57917    0.30723    0.24746   1.00
O2       0.73828    0.24638    0.22152   1.00
O2       0.78688    0.33796    0.18224   1.00
O2       0.64740    0.20747    0.18263   1.00
O2       0.75362    0.49189    0.22152   1.00
O2       0.79253    0.43994    0.18263   1.00
O2       0.66204    0.44893    0.18224   1.00
O2       0.50811    0.26172    0.22152   1.00
O2       0.55107    0.21312    0.18224   1.00
O2       0.56006    0.35260    0.18263   1.00
C1       0.72687    0.24723    0.23975   1.00
C1       0.75277    0.47963    0.23975   1.00
C1       0.52037    0.27313    0.23975   1.00
C1       0.81063    0.39997    0.17661   1.00
C1       0.58933    0.18937    0.17661   1.00
C1       0.60003    0.41067    0.17661   1.00
O1       0.66667    0.33333    0.70833   1.00
Zn1      0.66667    0.33333    0.73744   1.00
Zn1      0.71818    0.29046    0.69942   1.00
Zn1      0.57227    0.28182    0.69942   1.00
Zn1      0.70954    0.42773    0.69942   1.00
O2       0.72807    0.30723    0.74746   1.00
O2       0.57917    0.27193    0.74746   1.00
O2       0.69277    0.42083    0.74746   1.00
O2       0.75362    0.26172    0.72152   1.00
O2       0.66204    0.21312    0.68224   1.00
O2       0.79253    0.35260    0.68263   1.00
O2       0.50811    0.24638    0.72152   1.00
O2       0.56006    0.20747    0.68263   1.00
O2       0.55107    0.33796    0.68224   1.00
O2       0.73828    0.49189    0.72152   1.00
O2       0.78688    0.44893    0.68224   1.00
O2       0.64740    0.43994    0.68263   1.00
C1       0.75277    0.27313    0.73975   1.00
C1       0.52037    0.24723    0.73975   1.00
C1       0.72687    0.47963    0.73975   1.00
C1       0.60003    0.18937    0.67661   1.00
C1       0.81063    0.41067    0.67661   1.00
C1       0.58933    0.39997    0.67661   1.00
O1       0.66667    0.33333    0.45833   1.00
Zn1      0.66667    0.33333    0.42922   1.00
Zn1      -0.37621   0.38485    0.46725   1.00
Zn1      0.61515    0.23894    0.46725   1.00
Zn1      0.76106    0.37621    0.46725   1.00
O2       0.64057    0.39473    0.41920   1.00
O2       0.60527    0.24583    0.41920   1.00
O2       0.75417    0.35943    0.41920   1.00
O2       0.59506    0.42028    0.44514   1.00
O2       0.54645    0.32871    0.48443   1.00
O2       -0.31407   0.45920    0.48404   1.00
O2       0.57972    0.17477    0.44514   1.00
O2       0.54080    0.22673    0.48404   1.00
O2       0.67129    0.21774    0.48443   1.00
O2       0.82523    0.40494    0.44514   1.00
O2       -0.21774   0.45355    0.48443   1.00
O2       0.77327    0.31407    0.48404   1.00
C1       0.60647    0.41943    0.42691   1.00
C1       0.58057    0.18703    0.42691   1.00
C1       0.81297    0.39353    0.42691   1.00
C1       0.52270    0.26670    0.49006   1.00
C1       -0.25600   0.47730    0.49006   1.00
C1       0.73330    0.25600    0.49006   1.00
O1       0.33333    0.66667    0.29167   1.00
Zn1      0.33333    0.66667    0.26256   1.00
Zn1      0.28182    0.70954    0.30058   1.00
Zn1      0.42773    0.71818    0.30058   1.00
Zn1      0.29046    0.57227    0.30058   1.00
O2       0.27193    0.69277    0.25254   1.00
O2       0.42083    0.72807    0.25254   1.00
O2       0.30723    0.57917    0.25254   1.00
O2       0.24638    0.73828    0.27848   1.00
O2       0.33796    0.78688    0.31776   1.00
O2       0.20747    0.64740    0.31737   1.00
O2       0.49189    0.75362    0.27848   1.00
O2       0.43994    0.79253    0.31737   1.00
O2       0.44893    0.66204    0.31776   1.00
O2       0.26172    0.50811    0.27848   1.00
O2       0.21312    0.55107    0.31776   1.00
O2       0.35260    0.56006    0.31737   1.00
C1       0.24723    0.72687    0.26025   1.00
C1       0.47963    0.75277    0.26025   1.00
C1       0.27313    0.52037    0.26025   1.00
C1       0.39997    0.81063    0.32339   1.00
C1       0.18937    0.58933    0.32339   1.00
C1       0.41067    0.60003    0.32339   1.00
O1       0.33333    0.66667    0.54167   1.00
Zn1      0.33333    0.66667    0.57078   1.00
Zn1      0.37621    0.61515    0.53275   1.00
Zn1      0.38485    0.76106    0.53275   1.00
Zn1      0.23894    -0.37621   0.53275   1.00
O2       0.35943    0.60527    0.58080   1.00
O2       0.39473    0.75417    0.58080   1.00
O2       0.24583    0.64057    0.58080   1.00
O2       0.40494    0.57972    0.55486   1.00
O2       0.45355    0.67129    0.51557   1.00
O2       0.31407    0.54080    0.51596   1.00
O2       0.42028    0.82523    0.55486   1.00
O2       0.45920    0.77327    0.51596   1.00
O2       0.32871    -0.21774   0.51557   1.00
O2       0.17477    0.59506    0.55486   1.00
O2       0.21774    0.54645    0.51557   1.00
O2       0.22673    -0.31407   0.51596   1.00
C1       0.39353    0.58057    0.57309   1.00
C1       0.41943    0.81297    0.57309   1.00
C1       0.18703    0.60647    0.57309   1.00
C1       0.47730    0.73330    0.50994   1.00
C1       0.25600    0.52270    0.50994   1.00
C1       0.26670    -0.25600   0.50994   1.00
O1       0.33333    0.66667    0.04167   1.00
Zn1      0.33333    0.66667    0.07078   1.00
Zn1      0.38485    -0.37621   0.03275   1.00
Zn1      0.23894    0.61515    0.03275   1.00
Zn1      0.37621    0.76106    0.03275   1.00
O2       0.39473    0.64057    0.08080   1.00
O2       0.24583    0.60527    0.08080   1.00
O2       0.35943    0.75417    0.08080   1.00
O2       0.42028    0.59506    0.05486   1.00
O2       0.32871    0.54645    0.01557   1.00
O2       0.45920    -0.31407   0.01596   1.00
O2       0.17477    0.57972    0.05486   1.00
O2       0.22673    0.54080    0.01596   1.00
O2       0.21774    0.67129    0.01557   1.00
O2       0.40494    0.82523    0.05486   1.00
O2       0.45355    -0.21774   0.01557   1.00
O2       0.31407    0.77327    0.01596   1.00
C1       0.41943    0.60647    0.07309   1.00
C1       0.18703    0.58057    0.07309   1.00
C1       0.39353    0.81297    0.07309   1.00
C1       0.26670    0.52270    0.00994   1.00
C1       0.47730    -0.25600   0.00994   1.00
C1       0.25600    0.73330    0.00994   1.00
O1       0.33333    0.66667    0.79167   1.00
Zn1      0.33333    0.66667    0.76256   1.00
Zn1      0.29046    0.71818    0.80058   1.00
Zn1      0.28182    0.57227    0.80058   1.00
Zn1      0.42773    0.70954    0.80058   1.00
O2       0.30723    0.72807    0.75254   1.00
O2       0.27193    0.57917    0.75254   1.00
O2       0.42083    0.69277    0.75254   1.00
O2       0.26172    0.75362    0.77848   1.00
O2       0.21312    0.66204    0.81776   1.00
O2       0.35260    0.79253    0.81737   1.00
O2       0.24638    0.50811    0.77848   1.00
O2       0.20747    0.56006    0.81737   1.00
O2       0.33796    0.55107    0.81776   1.00
O2       0.49189    0.73828    0.77848   1.00
O2       0.44893    0.78688    0.81776   1.00
O2       0.43994    0.64740    0.81737   1.00
C1       0.27313    0.75277    0.76025   1.00
C1       0.24723    0.52037    0.76025   1.00
C1       0.47963    0.72687    0.76025   1.00
C1       0.18937    0.60003    0.82339   1.00
C1       0.41067    0.81063    0.82339   1.00
C1       0.39997    0.58933    0.82339   1.00
C4       -0.12902   0.69607    0.54823   1.00
C4       -0.15431   0.64396    0.53306   1.00
C3       -0.07869   0.70533    0.56272   1.00
C3       -0.13643   0.59220    0.53203   1.00
C3       -0.15596   0.74108    0.54932   1.00
C3       -0.19993   0.64308    0.51797   1.00
C2       -0.08302   0.80051    0.57907   1.00
C2       -0.20884   0.53944    0.50218   1.00
C3       -0.05658   0.75584    0.57779   1.00
C3       -0.16242   0.54174    0.51690   1.00
C3       -0.13205   0.79253    0.56440   1.00
C3       -0.22780   0.59009    0.50339   1.00
H1       -0.05646   0.67581    0.56271   1.00
H1       -0.10434   0.58938    0.54230   1.00
C5       -0.20638   0.73460    0.53528   1.00
C5       -0.21801   0.69463    0.51758   1.00
H1       -0.02041   0.75981    0.58795   1.00
H1       -0.14724   0.50595    0.51680   1.00
H1       -0.15045   0.82565    0.56464   1.00
H1       -0.26372   0.58767    0.49349   1.00
O3       -0.24026   0.77018    0.53842   1.00
O3       -0.25070   0.70267    0.50100   1.00
Si1      -0.31286   0.73418    0.55055   1.00
Si1      -0.20499   0.74806    0.48183   1.00
C6       -0.32143   0.80728    0.55256   1.00
C6       -0.37485   0.67319    0.53415   1.00
C6       -0.30826   0.70302    0.57470   1.00
C6       -0.11569   0.78241    0.48284   1.00
C6       -0.23864   0.69108    0.46136   1.00
C6       -0.22425   0.81358    0.47798   1.00
C6       -0.25658   0.87390    0.56001   1.00
H2       -0.32829   0.81699    0.53675   1.00
C6       -0.38277   0.80492    0.56438   1.00
H2       -0.35285   0.69322    0.51927   1.00
C6       -0.38770   0.59860    0.53475   1.00
C6       -0.44754   0.66537    0.53377   1.00
H2       -0.26249   0.74617    0.58111   1.00
C6       -0.36739   0.68703    0.58999   1.00
C6       -0.29804   0.63945    0.57635   1.00
C6       -0.07593   0.82980    0.50110   1.00
C6       -0.08522   0.73442    0.47954   1.00
H2       -0.09836   0.81551    0.46953   1.00
H2       -0.22207   0.65416    0.46427   1.00
C6       -0.31830   0.64820    0.46005   1.00
C6       -0.21261   0.72023    0.43964   1.00
H2       -0.27197   0.78896    0.46946   1.00
C6       -0.24019   0.84257    0.49736   1.00
C6       -0.17339   0.87691    0.46509   1.00
H2       -0.21230   0.88642    0.55052   1.00
H2       -0.24378   0.86864    0.57564   1.00
H2       -0.26443   0.91773    0.55935   1.00
H2       -0.39752   0.83924    0.55725   1.00
H2       -0.42764   0.75434    0.56468   1.00
H2       -0.36973   0.82182    0.58008   1.00
H2       -0.41561   0.57026    0.52127   1.00
H2       -0.34032   0.59729    0.53493   1.00
H2       -0.41795   0.57105    0.54798   1.00
H2       -0.44500   0.71377    0.53040   1.00
H2       -0.47937   0.62984    0.52192   1.00
H2       -0.47376   0.64596    0.54823   1.00
H2       -0.41708   0.65245    0.58330   1.00
H2       -0.36278   0.66358    0.60397   1.00
H2       -0.36650   0.73334    0.59482   1.00
H2       -0.34642   0.59145    0.57599   1.00
H2       -0.26655   0.63696    0.56439   1.00
H2       -0.27314   0.64086    0.59070   1.00
H2       -0.07757   0.80056    0.51442   1.00
H2       -0.02218   0.86271    0.49720   1.00
H2       -0.09570   0.86309    0.50535   1.00
H2       -0.02982   0.76434    0.47775   1.00
H2       -0.09520   0.70022    0.49230   1.00
H2       -0.10479   0.70373    0.46583   1.00
H2       -0.33406   0.60666    0.44911   1.00
H2       -0.34078   0.62473    0.47463   1.00
H2       -0.34046   0.67911    0.45531   1.00
H2       -0.15704   0.74943    0.43896   1.00
H2       -0.22926   0.67869    0.42865   1.00
H2       -0.23255   0.75289    0.43465   1.00
H2       -0.19671   0.86653    0.50764   1.00
H2       -0.25548   0.87998    0.49358   1.00
H2       -0.28237   0.80161    0.50555   1.00
H2       -0.19586   0.90842    0.46121   1.00
H2       -0.12613   0.90904    0.47338   1.00
H2       -0.16048   0.86181    0.45082   1.00
C4       0.30623    0.17541    0.54891   1.00
C4       0.35788    0.20162    0.53360   1.00
C3       0.31613    0.20279    0.56880   1.00
C3       0.42624    0.25366    0.53718   1.00
C3       0.24117    0.11795    0.54434   1.00
C3       0.34084    0.17486    0.51350   1.00
C2       0.20032    0.11737    0.57932   1.00
C2       0.45973    0.25082    0.50193   1.00
C3       0.26481    0.17437    0.58363   1.00
C3       0.47564    0.27806    0.52175   1.00
C3       0.18963    0.09082    0.55939   1.00
C3       0.39206    0.19810    0.49839   1.00
H1       0.36085    0.24433    0.57308   1.00
H1       0.44228    0.27508    0.55113   1.00
C5       0.22790    0.08814    0.52473   1.00
C5       0.27301    0.12468    0.50861   1.00
H1       0.27507    0.19604    0.59780   1.00
H1       0.52412    0.31617    0.52518   1.00
H1       0.14260    0.05079    0.55573   1.00
H1       0.38007    0.17537    0.48443   1.00
O3       0.16968    0.02639    0.52138   1.00
O3       0.25247    0.10802    0.48867   1.00
Si1      0.17210    -0.04425   0.52339   1.00
Si1      0.22814    0.15427    0.47612   1.00
C6       0.08354    -0.10097   0.52119   1.00
C6       0.21634    -0.04945   0.50208   1.00
C6       0.20330    -0.05321   0.54705   1.00
C6       0.23208    0.22552    0.48843   1.00
C6       0.28276    0.18192    0.45502   1.00
C6       0.14469    0.09897    0.46740   1.00
C6       0.03675    -0.08404   0.53460   1.00
H2       0.07349    -0.09258   0.50556   1.00
C6       0.05297    -0.18006   0.52323   1.00
H2       0.20829    -0.01836   0.49100   1.00
C6       0.29541    -0.01786   0.50365   1.00
C6       0.18990    -0.12045   0.49170   1.00
H2       0.17439    -0.04044   0.55770   1.00
C6       0.18846    -0.12633   0.55306   1.00
C6       0.28072    -0.00560   0.55242   1.00
C6       0.19206    0.21320    0.50877   1.00
C6       0.30292    0.29155    0.49162   1.00
H2       0.20633    0.24152    0.47761   1.00
H2       0.33237    0.21808    0.46141   1.00
C6       0.29338    0.12644    0.44414   1.00
C6       0.26814    0.22096    0.43799   1.00
H2       0.15199    0.07564    0.45385   1.00
C6       0.09824    0.03795    0.48153   1.00
C6       0.10054    0.13100    0.46058   1.00
H2       0.04668    -0.03229   0.53185   1.00
H2       0.04465    -0.08869   0.55075   1.00
H2       -0.01716   -0.11834   0.53121   1.00
H2       0.00841    -0.20696   0.51338   1.00
H2       0.08895    -0.19648   0.51905   1.00
H2       0.03556    -0.19820   0.53863   1.00
H2       0.31805    -0.01132   0.48858   1.00
H2       0.32001    0.03246    0.51060   1.00
H2       0.30852    -0.05072   0.51235   1.00
H2       0.13660    -0.14297   0.48717   1.00
H2       0.21842    -0.11583   0.47782   1.00
H2       0.19530    -0.15577   0.50177   1.00
H2       0.20571    -0.14810   0.54127   1.00
H2       0.21367    -0.12614   0.56724   1.00
H2       0.13445    -0.16048   0.55578   1.00
H2       0.31221    -0.02639   0.54705   1.00
H2       0.30230    0.04531    0.54619   1.00
H2       0.28723    0.00008    0.56888   1.00
H2       0.22105    0.21129    0.52169   1.00
H2       0.18168    0.25472    0.51164   1.00
H2       0.14305    0.16616    0.50852   1.00
H2       0.29618    0.33377    0.49674   1.00
H2       0.33367    0.28470    0.50303   1.00
H2       0.33239    0.30860    0.47762   1.00
H2       0.33638    0.15039    0.43360   1.00
H2       0.30523    0.09739    0.45501   1.00
H2       0.24845    0.09062    0.43553   1.00
H2       0.26200    0.26228    0.44416   1.00
H2       0.31073    0.24404    0.42728   1.00
H2       0.22236    0.18674    0.42939   1.00
H2       0.08912    0.05484    0.49609   1.00
H2       0.04893    0.00404    0.47451   1.00
H2       0.12230    0.00769    0.48450   1.00
H2       0.05452    0.09331    0.45267   1.00
H2       0.08446    0.14956    0.47355   1.00
H2       0.12816    0.17334    0.45009   1.00
C4       0.82939    0.13728    0.54933   1.00
C4       0.80311    0.16158    0.53371   1.00
C3       0.87354    0.17937    0.56496   1.00
C3       0.82320    0.23139    0.53108   1.00
C3       0.81171    0.06729    0.54930   1.00
C3       0.75382    0.11391    0.51988   1.00
C2       0.88307    0.08503    0.57979   1.00
C2       0.74874    0.20683    0.50146   1.00
C3       0.89997    0.15410    0.57970   1.00
C3       0.79631    0.25336    0.51552   1.00
C3       0.83790    0.04250    0.56453   1.00
C3       0.72955    0.13744    0.50379   1.00
H1       0.88760    0.22956    0.56613   1.00
H1       0.85827    0.26838    0.54031   1.00
C5       0.76776    0.02245    0.53411   1.00
C5       0.72942    0.04314    0.52205   1.00
H1       0.93207    0.18706    0.59054   1.00
H1       0.81228    0.30440    0.51446   1.00
H1       0.82326    -0.00823   0.56465   1.00
H1       0.69762    0.10321    0.49325   1.00
O3       0.75995    -0.04164   0.53210   1.00
O3       0.67262    -0.00453   0.51154   1.00
Si1      0.80783    -0.05411   0.51615   1.00
Si1      0.59718    -0.02950   0.52102   1.00
C6       0.78225    -0.13851   0.52350   1.00
C6       0.77907    -0.05147   0.49150   1.00
C6       0.89596    0.00072    0.52022   1.00
C6       0.59169    0.00804    0.54393   1.00
C6       0.55608    -0.01069   0.50161   1.00
C6       0.55605    -0.11881   0.52361   1.00
C6       0.78122    -0.15130   0.54690   1.00
H2       0.72888    -0.16606   0.51878   1.00
C6       0.81558    -0.17815   0.51375   1.00
H2       0.72609    -0.06561   0.49427   1.00
C6       0.81188    0.01872    0.48025   1.00
C6       0.77631    -0.10342   0.47534   1.00
H2       0.90041    -0.00332   0.53660   1.00
C6       0.94594    -0.01991   0.51030   1.00
C6       0.92885    0.07886    0.51536   1.00
C6       0.63050    0.00304    0.56288   1.00
C6       0.60407    0.08258    0.54373   1.00
H2       0.53768    -0.02290   0.54770   1.00
H2       0.58191    0.04489    0.50154   1.00
C6       0.56493    -0.03129   0.47962   1.00
C6       0.47838    -0.03627   0.50437   1.00
H2       0.53703    -0.13788   0.50840   1.00
C6       0.60240    -0.14923   0.52911   1.00
C6       0.49271    -0.15430   0.53803   1.00
H2       0.74959    -0.13505   0.55494   1.00
H2       0.83256    -0.12377   0.55333   1.00
H2       0.75993    -0.20551   0.55022   1.00
H2       0.77796    -0.23248   0.51271   1.00
H2       0.83507    -0.16053   0.49856   1.00
H2       0.85771    -0.17424   0.52285   1.00
H2       0.78047    0.01645    0.46734   1.00
H2       0.81619    0.05943    0.49002   1.00
H2       0.86240    0.03295    0.47442   1.00
H2       0.74544    -0.15591   0.48060   1.00
H2       0.75275    -0.10000   0.46123   1.00
H2       0.82742    -0.09375   0.47165   1.00
H2       0.93670    -0.02856   0.49403   1.00
H2       0.99940    0.01927    0.51243   1.00
H2       0.94113    -0.06559   0.51727   1.00
H2       0.94496    0.09033    0.49955   1.00
H2       0.89515    0.09894    0.51828   1.00
H2       0.97423    0.10828    0.52473   1.00
H2       0.68396    0.04281    0.56284   1.00
H2       0.60807    0.00920    0.57684   1.00
H2       0.62806    -0.04612   0.56385   1.00
H2       0.58951    0.09484    0.55828   1.00
H2       0.65734    0.12039    0.54121   1.00
H2       0.57352    0.08957    0.53222   1.00
H2       0.54783    -0.00745   0.46840   1.00
H2       0.61839    -0.01406   0.47626   1.00
H2       0.53562    -0.08634   0.47730   1.00
H2       0.46758    -0.02228   0.51918   1.00
H2       0.46107    -0.01320   0.49295   1.00
H2       0.44770    -0.09155   0.50265   1.00
H2       0.62682    -0.13169   0.54386   1.00
H2       0.57372    -0.20492   0.52925   1.00
H2       0.64229    -0.13405   0.51782   1.00
H2       0.46578    -0.20964   0.53595   1.00
H2       0.50776    -0.14387   0.55395   1.00
H2       0.45599    -0.13766   0.53495   1.00
C4       0.69249    -0.13800   0.95079   1.00
C4       0.64198    -0.16203   0.96643   1.00
C3       0.70278    -0.18176   0.93766   1.00
C3       0.60102    -0.23190   0.97170   1.00
C3       0.73614    -0.06630   0.94819   1.00
C3       0.63119    -0.11405   0.97749   1.00
C2       0.79798    -0.08546   0.92020   1.00
C2       0.54197    -0.20640   0.99855   1.00
C3       0.75430    -0.15628   0.92286   1.00
C3       0.55194    -0.25358   0.98719   1.00
C3       0.78698    -0.04159   0.93292   1.00
C3       0.58353    -0.13667   0.99362   1.00
H1       0.67299    -0.23343   0.93842   1.00
H1       0.60593    -0.26906   0.96453   1.00
C5       0.72854    -0.01975   0.96081   1.00
C5       0.66835    -0.04376   0.97255   1.00
H1       0.75966    -0.19039   0.91391   1.00
H1       0.52339    -0.30481   0.99022   1.00
H1       0.81666    0.00998    0.93086   1.00
H1       0.57950    -0.10130   1.00223   1.00
O3       0.77751    0.04837    0.96057   1.00
O3       0.64955    0.00133    0.98017   1.00
Si1      0.83993    0.07782    0.97695   1.00
Si1      0.59078    0.00969    0.96838   1.00
C6       0.88817    0.16021    0.96644   1.00
C6       0.80594    0.08057    1.00076   1.00
C6       0.88595    0.03382    0.97660   1.00
C6       0.55179    -0.04176   0.94684   1.00
C6       0.52911    -0.00955   0.98727   1.00
C6       0.62652    0.09653    0.96207   1.00
C6       0.89910    0.16331    0.94289   1.00
H2       0.85517    0.18180    0.96906   1.00
C6       0.95939    0.21329    0.97551   1.00
H2       0.76154    0.08453    0.99643   1.00
C6       0.77814    0.01651    1.01483   1.00
C6       0.84911    0.14291    1.01499   1.00
H2       0.89478    0.03169    0.96038   1.00
C6       0.95811    0.06974    0.98681   1.00
C6       0.85127    -0.04158   0.98462   1.00
C6       0.59860    -0.03754   0.92881   1.00
C6       0.49833    -0.11923   0.94970   1.00
H2       0.52136    -0.02043   0.94096   1.00
H2       0.50716    -0.06424   0.98968   1.00
C6       0.55658    0.02398    1.00852   1.00
C6       0.46829    0.00203    0.98205   1.00
H2       0.62273    0.12016    0.97607   1.00
C6       0.70391    0.13539    0.95666   1.00
C6       0.59037    0.11625    0.94533   1.00
H2       0.85061    0.13636    0.93479   1.00
H2       0.92996    0.14059    0.93854   1.00
H2       0.92480    0.21593    0.93742   1.00
H2       0.96748    0.26491    0.97399   1.00
H2       0.96425    0.20482    0.99150   1.00
H2       1.00156    0.21297    0.96757   1.00
H2       0.74597    0.01879    1.02683   1.00
H2       0.74655    -0.03066   1.00659   1.00
H2       0.81973    0.01334    1.02213   1.00
H2       0.86299    0.19102    1.00745   1.00
H2       0.82029    0.14110    1.02853   1.00
H2       0.89548    0.14379    1.02005   1.00
H2       0.95548    0.08450    1.00240   1.00
H2       0.98072    0.03685    0.98712   1.00
H2       0.99403    0.11469    0.97836   1.00
H2       0.85799    -0.04381   1.00094   1.00
H2       0.79701    -0.07074   0.98165   1.00
H2       0.87409    -0.06875   0.97729   1.00
H2       0.62062    -0.07009   0.93128   1.00
H2       0.56923    -0.05457   0.91473   1.00
H2       0.64005    0.01425    0.92622   1.00
H2       0.47200    -0.14158   0.93541   1.00
H2       0.52185    -0.14862   0.95455   1.00
H2       0.45883    -0.12734   0.96063   1.00
H2       0.51649    0.00021    1.01999   1.00
H2       0.59872    0.01705    1.01354   1.00
H2       0.57425    0.07850    1.00841   1.00
H2       0.44448    -0.02157   0.96764   1.00
H2       0.42866    -0.02087   0.99369   1.00
H2       0.48470    0.05628    0.98131   1.00
H2       0.71490    0.11462    0.94320   1.00
H2       0.72290    0.18963    0.95412   1.00
H2       0.73306    0.13165    0.96917   1.00
H2       0.61086    0.17141    0.94502   1.00
H2       0.59765    0.10081    0.93026   1.00
H2       0.53577    0.09288    0.94811   1.00
C4       0.17541    0.30622    0.95110   1.00
C4       0.20163    0.35787    0.96641   1.00
C3       0.20294    0.31604    0.93122   1.00
C3       0.25384    0.42617    0.96284   1.00
C3       0.11779    0.24124    0.95565   1.00
C3       0.17469    0.34089    0.98649   1.00
C2       0.11736    0.20031    0.92068   1.00
C2       0.25083    0.45974    0.99807   1.00
C3       0.17452    0.26472    0.91639   1.00
C3       0.27823    0.47558    0.97827   1.00
C3       0.09066    0.18970    0.94059   1.00
C3       0.19793    0.39213    1.00160   1.00
H1       0.24460    0.36069    0.92696   1.00
H1       0.27539    0.44216    0.94890   1.00
C5       0.08783    0.22806    0.97523   1.00
C5       0.12433    0.27313    0.99136   1.00
H1       0.19631    0.27492    0.90224   1.00
H1       0.31647    0.52401    0.97485   1.00
H1       0.05051    0.14273    0.94424   1.00
H1       0.17510    0.38020    1.01554   1.00
O3       0.02596    0.16994    0.97855   1.00
O3       0.10747    0.25261    1.01129   1.00
Si1      -0.04454   0.17260    0.97647   1.00
Si1      0.15345    0.22809    1.02390   1.00
C6       -0.10147   0.08409    0.97866   1.00
C6       -0.04975   0.21693    0.99775   1.00
C6       -0.05318   0.20387    0.95278   1.00
C6       0.22470    0.23180    1.01166   1.00
C6       0.18107    0.28272    1.04500   1.00
C6       0.09791    0.14468    1.03261   1.00
C6       -0.08461   0.03715    0.96528   1.00
H2       -0.09325   0.07399    0.99430   1.00
C6       -0.18051   0.05372    0.97656   1.00
H2       -0.01883   0.20878    1.00886   1.00
C6       -0.01794   0.29603    0.99617   1.00
C6       -0.12080   0.19069    1.00808   1.00
H2       -0.04044   0.17487    0.94216   1.00
C6       -0.12619   0.18925    0.94671   1.00
C6       -0.00535   0.28126    0.94742   1.00
C6       0.21244    0.19175    0.99133   1.00
C6       0.29089    0.30254    1.00850   1.00
H2       0.24050    0.20596    1.02251   1.00
H2       0.21738    0.33229    1.03862   1.00
C6       0.12563    0.29354    1.05582   1.00
C6       0.21986    0.26795    1.06208   1.00
H2       0.07452    0.15209    1.04613   1.00
C6       0.03695    0.09836    1.01844   1.00
C6       0.12968    0.10036    1.03949   1.00
H2       -0.03294   0.04693    0.96808   1.00
H2       -0.08910   0.04508    0.94913   1.00
H2       -0.11907   -0.01673   0.96867   1.00
H2       -0.20759   0.00919    0.98640   1.00
H2       -0.19682   0.08982    0.98070   1.00
H2       -0.19856   0.03634    0.96115   1.00
H2       -0.01146   0.31870    1.01124   1.00
H2       0.03243    0.32050    0.98926   1.00
H2       -0.05063   0.30927    0.98743   1.00
H2       -0.14350   0.13738    1.01261   1.00
H2       -0.11621   0.21925    1.02194   1.00
H2       -0.15596   0.19621    0.99797   1.00
H2       -0.14796   0.20660    0.95847   1.00
H2       -0.12580   0.21450    0.93251   1.00
H2       -0.16043   0.13526    0.94399   1.00
H2       -0.02605   0.31288    0.95275   1.00
H2       0.04550    0.30271    0.95368   1.00
H2       0.00047    0.28776    0.93096   1.00
H2       0.21073    0.22079    0.97840   1.00
H2       0.25387    0.18121    0.98851   1.00
H2       0.16531    0.14281    0.99156   1.00
H2       0.33305    0.29564    1.00343   1.00
H2       0.28424    0.33336    0.99707   1.00
H2       0.30789    0.33200    1.02250   1.00
H2       0.14959    0.33654    1.06636   1.00
H2       0.09675    0.30550    1.04492   1.00
H2       0.08965    0.24866    1.06443   1.00
H2       0.26114    0.26166    1.05595   1.00
H2       0.24296    0.31053    1.07279   1.00
H2       0.18547    0.22221    1.07066   1.00
H2       0.05390    0.08916    1.00391   1.00
H2       0.00287    0.04909    1.02546   1.00
H2       0.00684    0.12256    1.01544   1.00
H2       0.09184    0.05440    1.04738   1.00
H2       0.14826    0.08419    1.02654   1.00
H2       0.17195    0.12789    1.05000   1.00
C4       0.13728    0.82939    0.95067   1.00
C4       0.16158    0.80311    0.96629   1.00
C3       0.17936    0.87352    0.93504   1.00
C3       0.23138    0.82318    0.96891   1.00
C3       0.06729    0.81173    0.95070   1.00
C3       0.11391    0.75383    0.98012   1.00
C2       0.08503    0.88307    0.92021   1.00
C2       0.20683    0.74874    0.99854   1.00
C3       0.15410    0.89995    0.92029   1.00
C3       0.25336    0.79630    0.98447   1.00
C3       0.04251    0.83791    0.93547   1.00
C3       0.13744    0.72957    0.99622   1.00
H1       0.22955    0.88756    0.93387   1.00
H1       0.26837    0.85824    0.95968   1.00
C5       0.02246    0.76780    0.96590   1.00
C5       0.04314    0.72945    0.97796   1.00
H1       0.18705    0.93204    0.90945   1.00
H1       0.30440    0.81225    0.98553   1.00
H1       -0.00822   0.82330    0.93536   1.00
H1       0.10322    0.69766    1.00675   1.00
O3       -0.04162   0.76001    0.96791   1.00
O3       -0.00453   0.67267    0.98847   1.00
Si1      -0.05406   0.80791    0.98386   1.00
Si1      -0.02952   0.59722    0.97900   1.00
C6       -0.13846   0.78235    0.97652   1.00
C6       -0.05142   0.77916    1.00851   1.00
C6       0.00078    0.89603    0.97978   1.00
C6       0.00799    0.59170    0.95608   1.00
C6       -0.01072   0.55612    0.99841   1.00
C6       -0.11883   0.55611    0.97641   1.00
C6       -0.15127   0.78131    0.95311   1.00
H2       -0.16602   0.72898    0.98123   1.00
C6       -0.17808   0.81570    0.98626   1.00
H2       -0.06557   0.72618    1.00574   1.00
C6       0.01878    0.81196    1.01975   1.00
C6       -0.10334   0.77643    1.02468   1.00
H2       -0.00326   0.90048    0.96340   1.00
C6       -0.01982   0.94604    0.98970   1.00
C6       0.07893    0.92890    0.98464   1.00
C6       0.00298    0.63050    0.93713   1.00
C6       0.08252    0.60405    0.95628   1.00
H2       -0.02297   0.53769    0.95232   1.00
H2       0.04487    0.58194    0.99847   1.00
C6       -0.03130   0.56499    1.02040   1.00
C6       -0.03632   0.47841    0.99566   1.00
H2       -0.13790   0.53711    0.99162   1.00
C6       -0.14924   0.60247    0.97091   1.00
C6       -0.15436   0.49276    0.96200   1.00
H2       -0.13503   0.74966    0.94508   1.00
H2       -0.12373   0.83264    0.94669   1.00
H2       -0.20548   0.76003    0.94980   1.00
H2       -0.23241   0.77809    0.98731   1.00
H2       -0.16044   0.83520    1.00145   1.00
H2       -0.17416   0.85783    0.97717   1.00
H2       0.01652    0.78056    1.03267   1.00
H2       0.05949    0.81626    1.00999   1.00
H2       0.03304    0.86249    1.02558   1.00
H2       -0.15583   0.74557    1.01942   1.00
H2       -0.09992   0.75288    1.03879   1.00
H2       -0.09365   0.82755    1.02836   1.00
H2       -0.02845   0.93681    1.00598   1.00
H2       0.01937    0.99949    0.98757   1.00
H2       -0.06550   0.94124    0.98274   1.00
H2       0.09041    0.94503    1.00044   1.00
H2       0.09899    0.89519    0.98172   1.00
H2       0.10835    0.97428    0.97527   1.00
H2       0.04276    0.68395    0.93717   1.00
H2       0.00913    0.60805    0.92317   1.00
H2       -0.04616   0.62808    0.93617   1.00
H2       0.09477    0.58948    0.94173   1.00
H2       0.12034    0.65732    0.95879   1.00
H2       0.08951    0.57350    0.96779   1.00
H2       -0.00746   0.54789    1.03161   1.00
H2       -0.01404   0.61846    1.02375   1.00
H2       -0.08634   0.53570    1.02272   1.00
H2       -0.02235   0.46759    0.98085   1.00
H2       -0.01325   0.46110    1.00707   1.00
H2       -0.09160   0.44775    0.99738   1.00
H2       -0.13170   0.62688    0.95617   1.00
H2       -0.20493   0.57380    0.97077   1.00
H2       -0.13404   0.64237    0.98220   1.00
H2       -0.20969   0.46584    0.96408   1.00
H2       -0.14393   0.50779    0.94607   1.00
H2       -0.13772   0.45603    0.96508   1.00
C4       0.13511    0.30139    0.45260   1.00
C4       0.15998    0.35367    0.46771   1.00
C3       0.16378    0.25915    0.44893   1.00
C3       0.21966    0.37306    0.47937   1.00
C3       0.07912    0.29100    0.44016   1.00
C3       0.12350    0.38882    0.47157   1.00
C2       0.08406    0.19906    0.42107   1.00
C2       0.20780    0.46099    0.49768   1.00
C3       0.13925    0.20965    0.43354   1.00
C3       0.24259    0.42479    0.49408   1.00
C3       0.05430    0.23993    0.42495   1.00
C3       0.14908    0.44276    0.48583   1.00
H1       0.20318    0.26295    0.45739   1.00
H1       0.24846    0.35046    0.47744   1.00
C5       0.04809    0.33148    0.44304   1.00
C5       0.06208    0.37046    0.46106   1.00
H1       0.16234    0.18094    0.43149   1.00
H1       0.28574    0.43623    0.50217   1.00
H1       0.01290    0.23177    0.41652   1.00
H1       0.12482    0.47031    0.48749   1.00
O3       0.00205    0.32926    0.42896   1.00
O3       0.01921    0.39396    0.46729   1.00
Si1      0.02823    0.38464    0.41047   1.00
Si1      -0.03638   0.35270    0.48512   1.00
C6       -0.04899   0.34735    0.39671   1.00
C6       0.04679    0.46376    0.42092   1.00
C6       0.09467    0.38614    0.39605   1.00
C6       -0.03704   0.28134    0.49624   1.00
C6       -0.01662   0.41548    0.50368   1.00
C6       -0.11749   0.32907    0.47522   1.00
C6       -0.08423   0.26837    0.39331   1.00
H2       -0.08274   0.35460    0.40696   1.00
C6       -0.05420   0.37749    0.37578   1.00
H2       0.01444    0.44805    0.43438   1.00
C6       0.12087    0.51279    0.42870   1.00
C6       0.02679    0.51026    0.40860   1.00
H2       0.07537    0.33194    0.39326   1.00
C6       0.10918    0.42076    0.37464   1.00
C6       0.16737    0.41510    0.40576   1.00
C6       -0.04734   0.22166    0.48202   1.00
C6       0.02050    0.29260    0.51159   1.00
H2       -0.08277   0.26010    0.50566   1.00
H2       0.03224    0.42508    0.50973   1.00
C6       -0.00376   0.48624    0.49584   1.00
C6       -0.06607   0.39610    0.52219   1.00
H2       -0.12117   0.37515    0.47670   1.00
C6       -0.12824   0.31123    0.45218   1.00
C6       -0.18159   0.27127    0.48629   1.00
H2       -0.09308   0.24106    0.40766   1.00
H2       -0.05311   0.25530    0.38370   1.00
H2       -0.13404   0.24860    0.38608   1.00
H2       -0.10524   0.37064    0.37389   1.00
H2       -0.01788   0.43164    0.37430   1.00
H2       -0.04612   0.35177    0.36296   1.00
H2       0.12206    0.55228    0.43853   1.00
H2       0.14053    0.48612    0.43771   1.00
H2       0.15577    0.53839    0.41611   1.00
H2       -0.02743   0.48344    0.40489   1.00
H2       0.03620    0.55515    0.41738   1.00
H2       0.05633    0.52829    0.39460   1.00
H2       0.11763    0.47255    0.37569   1.00
H2       0.15406    0.42355    0.36744   1.00
H2       0.06738    0.39152    0.36422   1.00
H2       0.19878    0.47018    0.40379   1.00
H2       0.16611    0.40497    0.42185   1.00
H2       0.19441    0.39200    0.39851   1.00
H2       0.00035    0.23168    0.47501   1.00
H2       -0.06653   0.17432    0.49065   1.00
H2       -0.08413   0.21198    0.47002   1.00
H2       0.00786    0.24483    0.51924   1.00
H2       0.06946    0.31053    0.50417   1.00
H2       0.02702    0.32873    0.52352   1.00
H2       0.01927    0.52475    0.50778   1.00
H2       0.03161    0.50433    0.48303   1.00
H2       -0.05087   0.48425    0.49109   1.00
H2       -0.07641   0.34802    0.52907   1.00
H2       -0.04344   0.43515    0.53400   1.00
H2       -0.11451   0.39198    0.51782   1.00
H2       -0.12317   0.26700    0.44855   1.00
H2       -0.17830   0.30109    0.44702   1.00
H2       -0.09051   0.35404    0.44338   1.00
H2       -0.22831   0.26865    0.48069   1.00
H2       -0.18628   0.22137    0.48384   1.00
H2       -0.17977   0.28023    0.50258   1.00
C4       0.69566    0.82487    0.45165   1.00
C4       0.64492    0.79879    0.46722   1.00
C3       0.74686    0.80655    0.44958   1.00
C3       0.64407    0.75676    0.48334   1.00
C3       0.69638    0.87280    0.43744   1.00
C3       0.59168    0.81513    0.46681   1.00
C2       0.79853    0.88246    0.42035   1.00
C2       0.54142    0.74935    0.49840   1.00
C3       0.79712    0.83481    0.43444   1.00
C3       0.59340    0.73217    0.49840   1.00
C3       0.74675    0.89975    0.42204   1.00
C3       0.54280    0.79225    0.48261   1.00
H1       0.74899    0.77195    0.45897   1.00
H1       0.68047    0.74311    0.48468   1.00
C5       0.64660    0.89326    0.43865   1.00
C5       0.58776    0.85468    0.45076   1.00
H1       0.83316    0.82000    0.43378   1.00
H1       0.59502    0.70149    0.50959   1.00
H1       0.74548    0.93262    0.41162   1.00
H1       0.50762    0.80798    0.48280   1.00
O3       0.65409    0.94749    0.42720   1.00
O3       0.52999    0.85973    0.44785   1.00
Si1      0.69185    1.02409    0.43691   1.00
Si1      0.46676    0.80051    0.43485   1.00
C6       0.69582    1.06826    0.41443   1.00
C6       0.63520    1.02744    0.45459   1.00
C6       0.77418    1.04987    0.44638   1.00
C6       0.47414    0.73093    0.42585   1.00
C6       0.39793    0.77075    0.45180   1.00
C6       0.45070    0.84105    0.41453   1.00
C6       0.72244    1.04834    0.39512   1.00
H2       0.64205    1.05041    0.41143   1.00
C6       0.73211    1.14820    0.41406   1.00
H2       0.58584    0.98784    0.44892   1.00
C6       0.63882    1.00811    0.47716   1.00
C6       0.63005    1.09376    0.45576   1.00
H2       0.79694    1.03619    0.43393   1.00
C6       0.82268    1.12799    0.45019   1.00
C6       0.78227    1.01493    0.46596   1.00
C6       0.53621    0.74652    0.41194   1.00
C6       0.46629    0.67424    0.44104   1.00
H2       0.42939    0.70448    0.41610   1.00
H2       0.40977    0.74370    0.46334   1.00
C6       0.39035    0.82668    0.46357   1.00
C6       0.32554    0.71881    0.44345   1.00
H2       0.42016    0.86094    0.42130   1.00
C6       0.51397    0.90456    0.40531   1.00
C6       0.40833    0.79619    0.39611   1.00
H2       0.69267    0.99366    0.39209   1.00
H2       0.77581    1.06208    0.39686   1.00
H2       0.71838    1.07405    0.38161   1.00
H2       0.70629    1.16466    0.40337   1.00
H2       0.73219    1.16997    0.42875   1.00
H2       0.78506    1.17161    0.40903   1.00
H2       0.59284    0.99811    0.48542   1.00
H2       0.64214    0.96193    0.47835   1.00
H2       0.68238    1.04937    0.48500   1.00
H2       0.61737    1.10650    0.44104   1.00
H2       0.58957    1.08737    0.46615   1.00
H2       0.67772    1.13694    0.46118   1.00
H2       0.79849    1.14873    0.45995   1.00
H2       0.87062    1.13864    0.45735   1.00
H2       0.83748    1.15631    0.43603   1.00
H2       0.77985    1.04004    0.47981   1.00
H2       0.74398    0.96155    0.46731   1.00
H2       0.83185    1.01757    0.46587   1.00
H2       0.58176    0.75948    0.42077   1.00
H2       0.52513    0.70182    0.40281   1.00
H2       0.54832    0.78809    0.40142   1.00
H2       0.46246    0.63045    0.43283   1.00
H2       0.50964    0.69207    0.45125   1.00
H2       0.42009    0.65470    0.45016   1.00
H2       0.35402    0.80372    0.47606   1.00
H2       0.43876    0.86466    0.47029   1.00
H2       0.37222    0.85315    0.45379   1.00
H2       0.32548    0.67657    0.43547   1.00
H2       0.28900    0.69662    0.45592   1.00
H2       0.30664    0.74344    0.43317   1.00
H2       0.55019    0.89169    0.39866   1.00
H2       0.49923    0.92898    0.39364   1.00
H2       0.54037    0.94231    0.41707   1.00
H2       0.39304    0.82479    0.38613   1.00
H2       0.43780    0.77962    0.38704   1.00
H2       0.36160    0.75103    0.40102   1.00
C4       0.17003    -0.13068   0.45275   1.00
C4       0.19641    -0.15612   0.46801   1.00
C3       0.12046    -0.11118   0.45663   1.00
C3       0.17143    -0.17042   0.48822   1.00
C3       0.19339    -0.12520   0.43236   1.00
C3       0.25094    -0.16797   0.46300   1.00
C2       0.11674    -0.08293   0.42088   1.00
C2       0.25145    -0.20893   0.49787   1.00
C3       0.09424    -0.08833   0.44113   1.00
C3       0.19859    -0.19550   0.50280   1.00
C3       0.16724    -0.10082   0.41700   1.00
C3       0.27560    -0.19600   0.47767   1.00
H1       0.10213    -0.11279   0.47085   1.00
H1       0.13249    -0.16345   0.49292   1.00
C5       0.24292    -0.14383   0.42745   1.00
C5       0.28020    -0.15241   0.44334   1.00
H1       0.05810    -0.07541   0.44481   1.00
H1       0.17891    -0.20435   0.51723   1.00
H1       0.18585    -0.09536   0.40255   1.00
H1       0.31162    -0.20827   0.47348   1.00
O3       0.25686    -0.14934   0.40742   1.00
O3       0.34103    -0.15057   0.43934   1.00
Si1      0.21657    -0.22319   0.39604   1.00
Si1      0.41251    -0.08065   0.44410   1.00
C6       0.24698    -0.19364   0.37132   1.00
C6       0.24954    -0.27363   0.40555   1.00
C6       0.12697    -0.26123   0.39729   1.00
C6       0.40860    -0.01137   0.45501   1.00
C6       0.45437    -0.10800   0.46081   1.00
C6       0.45926    -0.05517   0.42130   1.00
C6       0.24348    -0.12938   0.36421   1.00
H2       0.30126    -0.17640   0.37277   1.00
C6       0.22154    -0.24357   0.35270   1.00
H2       0.30036    -0.23501   0.41053   1.00
C6       0.21458    -0.31937   0.42454   1.00
C6       0.26099    -0.32036   0.39047   1.00
H2       0.11915    -0.21902   0.39299   1.00
C6       0.08400    -0.32031   0.38196   1.00
C6       0.08963    -0.28881   0.41816   1.00
C6       0.36773    0.01709    0.44349   1.00
C6       0.38990    -0.01395   0.47800   1.00
H2       0.46174    0.02940    0.45436   1.00
H2       0.42467    -0.11972   0.47476   1.00
C6       0.45327    -0.17552   0.45489   1.00
C6       0.52968    -0.05529   0.46664   1.00
H2       0.48276    -0.08704   0.42037   1.00
C6       0.41691    -0.07023   0.40139   1.00
C6       0.51908    0.02028    0.41953   1.00
H2       0.26994    -0.08690   0.37478   1.00
H2       0.19071    -0.14067   0.36293   1.00
H2       0.26795    -0.11132   0.34945   1.00
H2       0.26254    -0.22769   0.34157   1.00
H2       0.20511    -0.29598   0.35688   1.00
H2       0.17907    -0.24366   0.34482   1.00
H2       0.24767    -0.33617   0.43141   1.00
H2       0.20428    -0.29206   0.43632   1.00
H2       0.16682    -0.36495   0.42045   1.00
H2       0.29389    -0.29103   0.37787   1.00
H2       0.28639    -0.34480   0.39792   1.00
H2       0.21258    -0.36073   0.38444   1.00
H2       0.09752    -0.36026   0.38285   1.00
H2       0.02917    -0.34389   0.38477   1.00
H2       0.09117    -0.30153   0.36648   1.00
H2       0.07713    -0.34132   0.42097   1.00
H2       0.11893    -0.25892   0.43106   1.00
H2       0.04161    -0.28824   0.41829   1.00
H2       0.31337    -0.01244   0.44678   1.00
H2       0.38499    0.06962    0.44812   1.00
H2       0.37444    0.01764    0.42713   1.00
H2       0.39899    0.03588    0.48311   1.00
H2       0.33649    -0.05033   0.48097   1.00
H2       0.42095    -0.02673   0.48767   1.00
H2       0.46993    -0.19438   0.46768   1.00
H2       0.40184    -0.21583   0.45094   1.00
H2       0.48678    -0.16823   0.44209   1.00
H2       0.53499    -0.00688   0.47159   1.00
H2       0.54666    -0.07462   0.47924   1.00
H2       0.56436    -0.04554   0.45394   1.00
H2       0.38855    -0.04303   0.40082   1.00
H2       0.44929    -0.05658   0.38794   1.00
H2       0.38045    -0.12439   0.40034   1.00
H2       0.55031    0.02680    0.40615   1.00
H2       0.49998    0.05590    0.41819   1.00
H2       0.55302    0.03521    0.43261   1.00
C4       0.30574    0.13027    0.04876   1.00
C4       0.35629    0.15448    0.03314   1.00
C3       0.26960    0.06138    0.05536   1.00
C3       0.37129    0.11121    0.02131   1.00
C3       0.28923    0.17690    0.05822   1.00
C3       0.39447    0.22587    0.02899   1.00
C2       0.20183    0.08464    0.07976   1.00
C2       0.45822    0.20722    0.00149   1.00
C3       0.21881    0.03907    0.07035   1.00
C3       0.42128    0.13687    0.00605   1.00
C3       0.23873    0.15364    0.07357   1.00
C3       0.44255    0.25036    0.01297   1.00
H1       0.27930    0.02544    0.04952   1.00
H1       0.34605    0.05973    0.02334   1.00
C5       0.32348    0.24650    0.05234   1.00
C5       0.38411    0.27240    0.04070   1.00
H1       0.19403    -0.01147   0.07440   1.00
H1       0.43036    0.10324    -0.00190   1.00
H1       0.22876    0.18804    0.08061   1.00
H1       0.46631    0.30101    0.00934   1.00
O3       0.29980    0.28861    0.05896   1.00
O3       0.42917    0.34179    0.03971   1.00
Si1      0.24666    0.29962    0.04493   1.00
Si1      0.49737    0.37455    0.05388   1.00
C6       0.22790    0.34573    0.06288   1.00
C6       0.29322    0.35165    0.02429   1.00
C6       0.17285    0.22250    0.03826   1.00
C6       0.51180    0.31895    0.06922   1.00
C6       0.56385    0.41476    0.03621   1.00
C6       0.49616    0.43824    0.06892   1.00
C6       0.21063    0.31497    0.08483   1.00
H2       0.27671    0.39302    0.06426   1.00
C6       0.17401    0.36821    0.05819   1.00
H2       0.34484    0.37915    0.03044   1.00
C6       0.29824    0.31643    0.00447   1.00
C6       0.27726    0.40790    0.01693   1.00
H2       0.15743    0.19589    0.05281   1.00
C6       0.11000    0.22718    0.03040   1.00
C6       0.17874    0.17243    0.02297   1.00
C6       0.45541    0.27297    0.08484   1.00
C6       0.53686    0.27263    0.05919   1.00
H2       0.55529    0.35453    0.07840   1.00
H2       0.56355    0.37248    0.02819   1.00
C6       0.55400    0.45799    0.01942   1.00
C6       0.63768    0.45987    0.04472   1.00
H2       0.51549    0.48230    0.05884   1.00
C6       0.42460    0.42476    0.07580   1.00
C6       0.54256    0.46318    0.08825   1.00
H2       0.25119    0.30737    0.09092   1.00
H2       0.16328    0.26583    0.08502   1.00
H2       0.20483    0.34910    0.09533   1.00
H2       0.18897    0.41701    0.06553   1.00
H2       0.16865    0.37444    0.04207   1.00
H2       0.12345    0.33191    0.06401   1.00
H2       0.33936    0.35317    -0.00527   1.00
H2       0.30976    0.27611    0.00764   1.00
H2       0.25102    0.29502    -0.00426   1.00
H2       0.28231    0.44229    0.02925   1.00
H2       0.31300    0.43988    0.00514   1.00
H2       0.22589    0.38523    0.01060   1.00
H2       0.12419    0.26277    0.01772   1.00
H2       0.06851    0.17770    0.02531   1.00
H2       0.08805    0.24311    0.04238   1.00
H2       0.17431    0.18459    0.00722   1.00
H2       0.22623    0.17204    0.02422   1.00
H2       0.13771    0.12017    0.02569   1.00
H2       0.41531    0.22670    0.07780   1.00
H2       0.47721    0.25701    0.09700   1.00
H2       0.43193    0.29952    0.09196   1.00
H2       0.55259    0.24877    0.07080   1.00
H2       0.49719    0.23158    0.05026   1.00
H2       0.58115    0.30160    0.04947   1.00
H2       0.59162    0.47104    0.00732   1.00
H2       0.50374    0.42953    0.01234   1.00
H2       0.55973    0.50546    0.02543   1.00
H2       0.64989    0.43292    0.05620   1.00
H2       0.67524    0.47377    0.03256   1.00
H2       0.64455    0.50712    0.05134   1.00
H2       0.39853    0.37983    0.08546   1.00
H2       0.42804    0.46828    0.08401   1.00
H2       0.39273    0.41662    0.06261   1.00
H2       0.54532    0.50932    0.09443   1.00
H2       0.52287    0.42452    0.10018   1.00
H2       0.59471    0.47586    0.08485   1.00
C4       0.82467    0.69515    0.04851   1.00
C4       0.79851    0.64449    0.03291   1.00
C3       0.80046    0.74118    0.05214   1.00
C3       0.75003    0.63888    0.01824   1.00
C3       0.87879    0.70127    0.06107   1.00
C3       0.82157    0.59632    0.03177   1.00
C2       0.88256    0.79838    0.07970   1.00
C2       0.74925    0.54157    0.00155   1.00
C3       0.82883    0.79164    0.06722   1.00
C3       0.72558    0.58846    0.00311   1.00
C3       0.90585    0.75168    0.07646   1.00
C3       0.79849    0.54777    0.01588   1.00
H1       0.76135    0.73925    0.04397   1.00
H1       0.73137    0.67152    0.01804   1.00
C5       0.90533    0.65682    0.05825   1.00
C5       0.86796    0.59716    0.04636   1.00
H1       0.80957    0.82382    0.06905   1.00
H1       0.69010    0.58647    -0.00698   1.00
H1       0.94336    0.75424    0.08572   1.00
H1       0.81876    0.51649    0.01451   1.00
O3       0.96452    0.67000    0.06800   1.00
O3       0.88041    0.54349    0.04800   1.00
Si1      1.03779    0.71401    0.05650   1.00
Si1      0.82904    0.47753    0.06170   1.00
C6       1.08999    0.72281    0.07750   1.00
C6       1.04250    0.66109    0.03773   1.00
C6       1.05306    0.79418    0.04779   1.00
C6       0.75797    0.47669    0.07311   1.00
C6       0.80063    0.40946    0.04452   1.00
C6       0.87901    0.46711    0.08028   1.00
C6       1.07170    0.74567    0.09787   1.00
H2       1.07805    0.67033    0.08005   1.00
C6       1.16979    0.76588    0.07590   1.00
H2       1.00807    0.61032    0.04375   1.00
C6       1.01546    0.66221    0.01597   1.00
C6       1.11214    0.66370    0.03427   1.00
H2       1.03978    0.81407    0.06106   1.00
C6       1.12843    0.84847    0.04232   1.00
C6       1.01005    0.79775    0.02960   1.00
C6       0.77142    0.53681    0.08761   1.00
C6       0.69517    0.46288    0.05972   1.00
H2       0.73796    0.43176    0.08284   1.00
H2       0.76774    0.41749    0.03415   1.00
C6       0.85665    0.40856    0.03081   1.00
C6       0.75657    0.33570    0.05318   1.00
H2       0.90126    0.44063    0.07231   1.00
C6       0.94117    0.53370    0.08856   1.00
C6       0.84194    0.42237    0.09930   1.00
H2       1.01858    0.71160    0.10214   1.00
H2       1.07973    0.79733    0.09670   1.00
H2       1.10290    0.74483    0.11040   1.00
H2       1.19289    0.74353    0.08551   1.00
H2       1.18839    0.76832    0.06056   1.00
H2       1.18991    0.81826    0.08114   1.00
H2       1.00769    0.61786    0.00721   1.00
H2       0.96642    0.66013    0.01638   1.00
H2       1.05164    0.70771    0.00763   1.00
H2       1.13105    0.65330    0.04826   1.00
H2       1.10695    0.62491    0.02338   1.00
H2       1.15058    0.71328    0.02835   1.00
H2       1.15002    0.82803    0.03146   1.00
H2       1.13229    0.89465    0.03575   1.00
H2       1.16048    0.86563    0.05576   1.00
H2       1.03266    0.79822    0.01494   1.00
H2       0.95798    0.75579    0.02930   1.00
H2       1.00740    0.84460    0.03055   1.00
H2       0.77748    0.58099    0.07925   1.00
H2       0.72845    0.52144    0.09797   1.00
H2       0.81660    0.55290    0.09693   1.00
H2       0.65209    0.45441    0.06926   1.00
H2       0.70618    0.50553    0.04978   1.00
H2       0.67720    0.41725    0.05041   1.00
H2       0.83307    0.37180    0.01845   1.00
H2       0.88920    0.45825    0.02378   1.00
H2       0.88914    0.39456    0.03933   1.00
H2       0.71464    0.33094    0.06253   1.00
H2       0.73381    0.29881    0.04081   1.00
H2       0.78735    0.32076    0.06224   1.00
H2       0.92562    0.56630    0.09628   1.00
H2       0.97167    0.52266    0.09908   1.00
H2       0.97445    0.56267    0.07610   1.00
H2       0.87639    0.41128    0.10800   1.00
H2       0.82394    0.44824    0.10943   1.00
H2       0.79840    0.37339    0.09503   1.00
C4       -0.13069   0.17002    0.04724   1.00
C4       -0.15613   0.19640    0.03199   1.00
C3       -0.11135   0.12033    0.04337   1.00
C3       -0.17059   0.17132    0.01179   1.00
C3       -0.12505   0.19350    0.06763   1.00
C3       -0.16782   0.25105    0.03699   1.00
C2       -0.08293   0.11674    0.07912   1.00
C2       -0.20893   0.25145    0.00213   1.00
C3       -0.08849   0.09411    0.05888   1.00
C3       -0.19566   0.19848    -0.00279   1.00
C3       -0.10066   0.16735    0.08299   1.00
C3       -0.19584   0.27572    0.02232   1.00
H1       -0.11308   0.10190    0.02916   1.00
H1       -0.16374   0.13229    0.00711   1.00
C5       -0.14352   0.24316    0.07253   1.00
C5       -0.15210   0.28041    0.05663   1.00
H1       -0.07568   0.05788    0.05520   1.00
H1       -0.20463   0.17872    -0.01720   1.00
H1       -0.09509   0.18605    0.09744   1.00
H1       -0.20799   0.31183    0.02650   1.00
O3       -0.14888   0.25723    0.09256   1.00
O3       -0.15009   0.34132    0.06061   1.00
Si1      -0.22267   0.21713    0.10398   1.00
Si1      -0.08012   0.41271    0.05581   1.00
C6       -0.19294   0.24764    0.12868   1.00
C6       -0.27303   0.25020    0.09448   1.00
C6       -0.26088   0.12751    0.10277   1.00
C6       -0.01099   0.40857    0.04487   1.00
C6       -0.10744   0.45458    0.03909   1.00
C6       -0.05443   0.45957    0.07859   1.00
C6       -0.12872   0.24403    0.13576   1.00
H2       -0.17561   0.30193    0.12720   1.00
C6       -0.24277   0.22238    0.14732   1.00
H2       -0.23437   0.30096    0.08946   1.00
C6       -0.31891   0.21519    0.07551   1.00
C6       -0.31960   0.26184    0.10957   1.00
H2       -0.21870   0.11961    0.10705   1.00
C6       -0.31990   0.08470    0.11813   1.00
C6       -0.28863   0.09007    0.08192   1.00
C6       0.01741    0.36766    0.05639   1.00
C6       -0.01374   0.38973    0.02189   1.00
H2       0.02986    0.46169    0.04549   1.00
H2       -0.11930   0.42479    0.02515   1.00
C6       -0.17485   0.45366    0.04503   1.00
C6       -0.05465   0.52982    0.03322   1.00
H2       -0.08621   0.48318    0.07951   1.00
C6       -0.06946   0.41732    0.09851   1.00
C6       0.02108    0.51930    0.08030   1.00
H2       -0.08629   0.27037    0.12517   1.00
H2       -0.14011   0.19124    0.13706   1.00
H2       -0.11055   0.26857    0.15051   1.00
H2       -0.22675   0.26346    0.15843   1.00
H2       -0.29517   0.20603    0.14316   1.00
H2       -0.24291   0.17991    0.15522   1.00
H2       -0.33565   0.24832    0.06863   1.00
H2       -0.29172   0.20475    0.06373   1.00
H2       -0.36452   0.16751    0.07963   1.00
H2       -0.29016   0.29479    0.12214   1.00
H2       -0.34400   0.28729    0.10212   1.00
H2       -0.36000   0.21350    0.11563   1.00
H2       -0.35977   0.09833    0.11725   1.00
H2       -0.34359   0.02985    0.11534   1.00
H2       -0.30103   0.09193    0.13360   1.00
H2       -0.34112   0.07766    0.07913   1.00
H2       -0.25878   0.11927    0.06900   1.00
H2       -0.28816   0.04200    0.08181   1.00
H2       -0.01222   0.31328    0.05313   1.00
H2       0.06989    0.38479    0.05175   1.00
H2       0.01807    0.37446    0.07275   1.00
H2       0.03602    0.39869    0.01675   1.00
H2       -0.05022   0.33633    0.01895   1.00
H2       -0.02650   0.42080    0.01221   1.00
H2       -0.19373   0.47031    0.03225   1.00
H2       -0.21522   0.40228    0.04902   1.00
H2       -0.16743   0.48726    0.05783   1.00
H2       -0.00632   0.53500    0.02825   1.00
H2       -0.07401   0.54680    0.02063   1.00
H2       -0.04477   0.56459    0.04590   1.00
H2       -0.04236   0.38887    0.09908   1.00
H2       -0.05568   0.44978    0.11195   1.00
H2       -0.12364   0.38095    0.09959   1.00
H2       0.02773    0.55063    0.09368   1.00
H2       0.05662    0.50011    0.08164   1.00
H2       0.03599    0.55318    0.06721   1.00
C4       0.53727    1.03193    0.88080   1.00
C4       0.51271    0.97965    0.86569   1.00
C3       0.60738    1.07408    0.88559   1.00
C3       0.55509    0.96017    0.85520   1.00
C3       0.48943    1.04243    0.89205   1.00
C3       0.44196    0.94461    0.86060   1.00
C2       0.58259    1.13427    0.91226   1.00
C2       0.45889    0.87234    0.83565   1.00
C3       0.62943    1.12358    0.90096   1.00
C3       0.52907    0.90844    0.84046   1.00
C3       0.51281    1.09350    0.90723   1.00
C3       0.41629    0.89066    0.84633   1.00
H1       0.64449    1.07021    0.87802   1.00
H1       0.60602    0.98269    0.85804   1.00
C5       0.41859    1.00204    0.88800   1.00
C5       0.39706    0.96307    0.86989   1.00
H1       0.68074    1.15222    0.90386   1.00
H1       0.56222    0.89692    0.83323   1.00
H1       0.47806    1.10173    0.91479   1.00
H1       0.36489    0.86319    0.84381   1.00
O3       0.37219    1.00436    0.90102   1.00
O3       0.33203    0.93967    0.86242   1.00
Si1      0.33932    0.94898    0.91943   1.00
Si1      0.32133    0.98099    0.84384   1.00
C6       0.29697    0.98638    0.93182   1.00
C6       0.28075    0.86990    0.90853   1.00
C6       0.40125    0.94735    0.93533   1.00
C6       0.39418    1.05229    0.83354   1.00
C6       0.28186    0.91824    0.82505   1.00
C6       0.26218    1.00476    0.85213   1.00
C6       0.34015    1.06536    0.93531   1.00
H2       0.25806    0.97921    0.92074   1.00
C6       0.25758    0.95629    0.95224   1.00
H2       0.26682    0.88566    0.89453   1.00
C6       0.30708    0.82077    0.90189   1.00
C6       0.21193    0.82348    0.91982   1.00
H2       0.43567    1.00154    0.93828   1.00
C6       0.37695    0.91275    0.95662   1.00
C6       0.44665    0.91828    0.92697   1.00
C6       0.44083    1.11193    0.84818   1.00
C6       0.44326    1.04093    0.81941   1.00
H2       0.37165    1.07359    0.82334   1.00
H2       0.32214    0.90855    0.82002   1.00
C6       0.22241    0.84752    0.83235   1.00
C6       0.25554    0.93769    0.80567   1.00
H2       0.21274    0.95873    0.85004   1.00
C6       0.26484    1.02261    0.87507   1.00
C6       0.25823    1.06263    0.84028   1.00
H2       0.36142    1.09265    0.92111   1.00
H2       0.38238    1.07836    0.94577   1.00
H2       0.30885    1.08520    0.94161   1.00
H2       0.21319    0.96323    0.95304   1.00
H2       0.23936    0.90212    0.95393   1.00
H2       0.28886    0.98197    0.96551   1.00
H2       0.27068    0.78131    0.89166   1.00
H2       0.35509    0.84738    0.89366   1.00
H2       0.31382    0.79513    0.91496   1.00
H2       0.18397    0.85038    0.92259   1.00
H2       0.17812    0.77861    0.91076   1.00
H2       0.22062    0.80542    0.93426   1.00
H2       0.33379    0.86098    0.95518   1.00
H2       0.41750    0.90987    0.96480   1.00
H2       0.36250    0.94203    0.96640   1.00
H2       0.42251    0.86319    0.92902   1.00
H2       0.45865    0.92840    0.91099   1.00
H2       0.49529    0.94131    0.93508   1.00
H2       0.47698    1.10183    0.85615   1.00
H2       0.47070    1.15926    0.83967   1.00
H2       0.41151    1.12168    0.85942   1.00
H2       0.47991    1.08868    0.81204   1.00
H2       0.47270    1.02292    0.82773   1.00
H2       0.41594    1.00481    0.80724   1.00
H2       0.20918    0.80900    0.82053   1.00
H2       0.23709    0.82938    0.84574   1.00
H2       0.17651    0.84960    0.83604   1.00
H2       0.29463    0.98574    0.79912   1.00
H2       0.24134    0.89863    0.79395   1.00
H2       0.21051    0.94190    0.80897   1.00
H2       0.31342    1.06679    0.87931   1.00
H2       0.22408    1.03283    0.87920   1.00
H2       0.25793    0.97977    0.88423   1.00
H2       0.21319    1.06534    0.84482   1.00
H2       0.30297    1.11249    0.84319   1.00
H2       0.25425    1.05367    0.82396   1.00
C4       -0.02529   0.50464    0.88272   1.00
C4       0.02535    0.53082    0.86711   1.00
C3       -0.02279   0.46756    0.89974   1.00
C3       0.08009    0.51725    0.86601   1.00
C3       -0.08241   0.51491    0.88121   1.00
C3       0.02174    0.57313    0.85169   1.00
C2       -0.13146   0.45045    0.91310   1.00
C2       0.12485    0.58440    0.83481   1.00
C3       -0.07457   0.44086    0.91446   1.00
C3       0.12885    0.54381    0.85042   1.00
C3       -0.13347   0.48867    0.89641   1.00
C3       0.06970    0.59697    0.83563   1.00
H1       0.01685    0.45906    0.90199   1.00
H1       0.08592    0.48734    0.87643   1.00
C5       -0.08800   0.55157    0.86457   1.00
C5       -0.02996   0.59098    0.85224   1.00
H1       -0.07026   0.41404    0.92636   1.00
H1       0.16766    0.53279    0.85049   1.00
H1       -0.17317   0.49806    0.89542   1.00
H1       0.06388    0.62354    0.82402   1.00
O3       -0.14811   0.55163    0.86136   1.00
O3       -0.02663   0.64210    0.83998   1.00
Si1      -0.20565   0.49544    0.84614   1.00
Si1      0.01751    0.72101    0.84766   1.00
C6       -0.27075   0.51434    0.85159   1.00
C6       -0.17524   0.51917    0.82114   1.00
C6       -0.23063   0.41048    0.85265   1.00
C6       0.06154    0.73755    0.87099   1.00
C6       0.07637    0.76106    0.82793   1.00
C6       -0.03804   0.75435    0.84803   1.00
C6       -0.28391   0.52037    0.87464   1.00
H2       -0.24961   0.56585    0.84549   1.00
C6       -0.34344   0.47195    0.84182   1.00
H2       -0.14056   0.57391    0.82272   1.00
C6       -0.13178   0.48991    0.81170   1.00
C6       -0.22689   0.51145    0.80415   1.00
H2       -0.23951   0.40985    0.86896   1.00
C6       -0.29891   0.35278    0.84333   1.00
C6       -0.17904   0.38385    0.84970   1.00
C6       0.01938    0.70142    0.89044   1.00
C6       0.12842    0.73333    0.87225   1.00
H2       0.07947    0.79166    0.87326   1.00
H2       0.11068    0.74048    0.82925   1.00
C6       0.04700    0.74325    0.80587   1.00
C6       0.12218    0.84042    0.82888   1.00
H2       -0.03988   0.76787    0.83224   1.00
C6       -0.11365   0.70357    0.85381   1.00
C6       -0.01646   0.82067    0.86065   1.00
H2       -0.23737   0.55775    0.88235   1.00
H2       -0.30320   0.47147    0.88240   1.00
H2       -0.32112   0.53723    0.87666   1.00
H2       -0.36535   0.50474    0.83921   1.00
H2       -0.34272   0.44936    0.82734   1.00
H2       -0.37906   0.43065    0.85168   1.00
H2       -0.10437   0.51908    0.79826   1.00
H2       -0.09323   0.49290    0.82217   1.00
H2       -0.16396   0.43691    0.80703   1.00
H2       -0.25337   0.53911    0.80796   1.00
H2       -0.20082   0.53270    0.78975   1.00
H2       -0.26450   0.45788    0.80154   1.00
H2       -0.29889   0.35698    0.82683   1.00
H2       -0.30782   0.30185    0.84704   1.00
H2       -0.34269   0.35435    0.84941   1.00
H2       -0.18163   0.36391    0.83445   1.00
H2       -0.12641   0.42243    0.85234   1.00
H2       -0.19085   0.34225    0.86031   1.00
H2       0.01115    0.64996    0.89201   1.00
H2       0.04649    0.72957    0.90404   1.00
H2       -0.03012   0.69842    0.89055   1.00
H2       0.15457    0.75409    0.88667   1.00
H2       0.11837    0.68115    0.87131   1.00
H2       0.16473    0.76307    0.86037   1.00
H2       0.08843    0.76094    0.79480   1.00
H2       0.01514    0.68819    0.80376   1.00
H2       0.01657    0.76687    0.80212   1.00
H2       0.14661    0.85751    0.84365   1.00
H2       0.16301    0.85819    0.81760   1.00
H2       0.09277    0.86562    0.82570   1.00
H2       -0.11848   0.68406    0.86920   1.00
H2       -0.14542   0.72714    0.85252   1.00
H2       -0.13474   0.66035    0.84353   1.00
H2       -0.04942   0.84184    0.85719   1.00
H2       -0.02002   0.81049    0.87694   1.00
H2       0.03556    0.86037    0.85722   1.00
C4       0.49634    0.47081    0.88264   1.00
C4       0.47001    0.49504    0.86701   1.00
C3       0.54312    0.51358    0.89767   1.00
C3       0.49249    0.56513    0.86374   1.00
C3       0.47590    0.40011    0.88323   1.00
C3       0.41816    0.44701    0.85385   1.00
C2       0.54983    0.41847    0.91312   1.00
C2       0.41532    0.54005    0.83479   1.00
C3       0.56945    0.48825    0.91242   1.00
C3       0.46547    0.58702    0.84820   1.00
C3       0.50207    0.37534    0.89848   1.00
C3       0.39371    0.47031    0.83774   1.00
H1       0.55925    0.56435    0.89838   1.00
H1       0.52945    0.60237    0.87247   1.00
C5       0.42924    0.35457    0.86866   1.00
C5       0.39138    0.37608    0.85669   1.00
H1       0.60351    0.52170    0.92282   1.00
H1       0.48325    0.63831    0.84666   1.00
H1       0.48550    0.32420    0.89906   1.00
H1       0.35979    0.43559    0.82766   1.00
O3       0.41847    0.28921    0.86717   1.00
O3       0.33259    0.32878    0.84689   1.00
Si1      0.46282    0.27242    0.85103   1.00
Si1      0.25891    0.30786    0.85701   1.00
C6       0.43486    0.18822    0.85915   1.00
C6       0.43205    0.27358    0.82656   1.00
C6       0.55177    0.32483    0.85415   1.00
C6       0.25787    0.34912    0.87966   1.00
C6       0.21743    0.32673    0.83772   1.00
C6       0.21500    0.21881    0.86051   1.00
C6       0.43594    0.17790    0.88264   1.00
H2       0.38098    0.16199    0.85497   1.00
C6       0.46446    0.14505    0.84950   1.00
H2       0.38002    0.26190    0.82975   1.00
C6       0.46598    0.34248    0.81459   1.00
C6       0.42515    0.21876    0.81081   1.00
H2       0.55781    0.32240    0.87052   1.00
C6       0.59849    0.30030    0.84408   1.00
C6       0.58687    0.40259    0.84851   1.00
C6       0.29768    0.34441    0.89839   1.00
C6       0.27331    0.42468    0.87883   1.00
H2       0.20419    0.32044    0.88398   1.00
H2       0.24517    0.38232    0.83709   1.00
C6       0.22263    0.30272    0.81585   1.00
C6       0.14076    0.30450    0.84115   1.00
H2       0.19385    0.19844    0.84557   1.00
C6       0.25948    0.18623    0.86595   1.00
C6       0.15323    0.18714    0.87557   1.00
H2       0.40672    0.19691    0.89074   1.00
H2       0.48803    0.20441    0.88854   1.00
H2       0.41308    0.12388    0.88648   1.00
H2       0.42517    0.09116    0.84909   1.00
H2       0.48255    0.16039    0.83407   1.00
H2       0.50680    0.14815    0.85830   1.00
H2       0.43374    0.34012    0.80190   1.00
H2       0.47315    0.38501    0.82402   1.00
H2       0.51526    0.35402    0.80835   1.00
H2       0.39324    0.16717    0.81664   1.00
H2       0.40071    0.22171    0.79683   1.00
H2       0.47505    0.22586    0.80673   1.00
H2       0.58721    0.29001    0.82794   1.00
H2       0.65268    0.33810    0.84559   1.00
H2       0.59252    0.25466    0.85141   1.00
H2       0.60131    0.41173    0.83253   1.00
H2       0.55523    0.42500    0.85148   1.00
H2       0.63356    0.43164    0.85737   1.00
H2       0.35165    0.38257    0.89772   1.00
H2       0.27767    0.35336    0.91244   1.00
H2       0.29318    0.29442    0.89974   1.00
H2       0.26132    0.43957    0.89337   1.00
H2       0.32673    0.46056    0.87571   1.00
H2       0.24250    0.43190    0.86747   1.00
H2       0.20574    0.32657    0.80457   1.00
H2       0.27520    0.31747    0.81204   1.00
H2       0.19126    0.24756    0.81412   1.00
H2       0.13254    0.32101    0.85591   1.00
H2       0.12361    0.32755    0.82968   1.00
H2       0.10811    0.24924    0.84003   1.00
H2       0.28580    0.20473    0.88040   1.00
H2       0.22898    0.13067    0.86668   1.00
H2       0.29782    0.19858    0.85430   1.00
H2       0.12419    0.13161    0.87407   1.00
H2       0.17020    0.19895    0.89131   1.00
H2       0.11779    0.20549    0.87260   1.00
C4       0.36419    0.20449    0.28553   1.00
C4       0.31193    0.17953    0.30065   1.00
C3       0.39032    0.26898    0.27597   1.00
C3       0.27630    0.21372    0.30637   1.00
C3       0.39152    0.16263    0.27928   1.00
C3       0.29391    0.11702    0.31077   1.00
C2       0.46751    0.24986    0.25437   1.00
C2       0.20578    0.12494    0.33104   1.00
C3       0.44027    0.29092    0.26073   1.00
C3       0.22513    0.18754    0.32128   1.00
C3       0.44280    0.18623    0.26416   1.00
C3       0.24020    0.09006    0.32513   1.00
H1       0.37399    0.30200    0.27984   1.00
H1       0.28618    0.25843    0.29978   1.00
C5       0.36765    0.09760    0.28824   1.00
C5       0.32905    0.08141    0.30641   1.00
H1       0.45686    0.33785    0.25426   1.00
H1       0.20151    0.21477    0.32492   1.00
H1       0.46327    0.15646    0.26023   1.00
H1       0.22497    0.04316    0.33128   1.00
O3       0.38557    0.05296    0.27991   1.00
O3       0.32207    0.02879    0.31868   1.00
Si1      0.33543    -0.00354   0.26334   1.00
Si1      0.36978    0.04708    0.33887   1.00
C6       0.39123    -0.03334   0.25636   1.00
C6       0.26400    -0.06652   0.27660   1.00
C6       0.31618    0.03259    0.24242   1.00
C6       0.42624    0.13390    0.34454   1.00
C6       0.31004    0.00983    0.35854   1.00
C6       0.41510    0.00282    0.33691   1.00
C6       0.46656    0.02299    0.25162   1.00
H2       0.39407    -0.05788   0.27029   1.00
C6       0.37149    -0.08824   0.23923   1.00
H2       0.28456    -0.06223   0.29184   1.00
C6       0.20051    -0.05706   0.27909   1.00
C6       0.23417    -0.14295   0.27039   1.00
H2       0.36646    0.07456    0.23820   1.00
C6       0.28688    -0.01266   0.22297   1.00
C6       0.26912    0.06453    0.24551   1.00
C6       0.47995    0.17870    0.32813   1.00
C6       0.39731    0.17851    0.35343   1.00
H2       0.45597    0.13057    0.35707   1.00
H2       0.28648    0.04161    0.35949   1.00
C6       0.24986    -0.06424   0.35458   1.00
C6       0.33802    0.00956    0.38020   1.00
H2       0.37859    -0.04882   0.34189   1.00
C6       0.43631    -0.00588   0.31510   1.00
C6       0.47984    0.02682    0.35052   1.00
H2       0.48927    0.05846    0.26428   1.00
H2       0.46916    0.05243    0.23817   1.00
H2       0.49883    0.00052    0.24896   1.00
H2       0.39285    -0.12105   0.24265   1.00
H2       0.31672    -0.12096   0.23752   1.00
H2       0.39184    -0.06526   0.22445   1.00
H2       0.16662    -0.09061   0.29097   1.00
H2       0.21483    -0.00535   0.28358   1.00
H2       0.17101    -0.06944   0.26508   1.00
H2       0.27298    -0.15802   0.27106   1.00
H2       0.19355    -0.17707   0.28073   1.00
H2       0.21266    -0.15237   0.25511   1.00
H2       0.24212    -0.06173   0.22658   1.00
H2       0.27206    0.01201    0.21136   1.00
H2       0.32488    -0.02153   0.21575   1.00
H2       0.21516    0.02665    0.24395   1.00
H2       0.27531    0.08857    0.26016   1.00
H2       0.28074    0.10384    0.23406   1.00
H2       0.45838    0.19780    0.31689   1.00
H2       0.52291    0.22318    0.33516   1.00
H2       0.50079    0.15099    0.32022   1.00
H2       0.43878    0.22757    0.35877   1.00
H2       0.36899    0.18961    0.34220   1.00
H2       0.36420    0.15447    0.36646   1.00
H2       0.20981    -0.07836   0.36595   1.00
H2       0.22635    -0.06828   0.33978   1.00
H2       0.26651    -0.10186   0.35519   1.00
H2       0.37915    0.06001    0.38454   1.00
H2       0.29767    -0.00557   0.39154   1.00
H2       0.35674    -0.02642   0.38117   1.00
H2       0.47122    0.04294    0.30806   1.00
H2       0.46053    -0.03722   0.31509   1.00
H2       0.39141    -0.03156   0.30554   1.00
H2       0.49701    -0.01054   0.35025   1.00
H2       0.52214    0.07545    0.34529   1.00
H2       0.46958    0.03259    0.36633   1.00
C4       0.83637    0.63398    0.28611   1.00
C4       0.86450    0.68611    0.30125   1.00
C3       0.84324    0.57500    0.28643   1.00
C3       0.90744    0.68758    0.31718   1.00
C3       0.80013    0.64120    0.26947   1.00
C3       0.84909    0.73999    0.30065   1.00
C2       0.78090    0.53255    0.25436   1.00
C2       0.92063    0.79416    0.33105   1.00
C3       0.81662    0.52586    0.27094   1.00
C3       0.93423    0.73975    0.33178   1.00
C3       0.77256    0.59041    0.25420   1.00
C3       0.87896    0.79361    0.31499   1.00
H1       0.86757    0.56590    0.29795   1.00
H1       0.92087    0.65104    0.31857   1.00
C5       0.79141    0.69895    0.26823   1.00
C5       0.80451    0.74049    0.28565   1.00
H1       0.82360    0.48451    0.27191   1.00
H1       0.96451    0.73785    0.34306   1.00
H1       0.74507    0.59533    0.24265   1.00
H1       0.87094    0.83403    0.31358   1.00
O3       0.76667    0.71148    0.25064   1.00
O3       0.77832    0.78391    0.28713   1.00
Si1      0.81971    0.76173    0.23337   1.00
Si1      0.70988    0.76047    0.30071   1.00
C6       0.75851    0.74621    0.21443   1.00
C6       0.85685    0.84589    0.24262   1.00
C6       0.87826    0.73666    0.22528   1.00
C6       0.67414    0.68158    0.31363   1.00
C6       0.73605    0.82686    0.31841   1.00
C6       0.64855    0.76241    0.28472   1.00
C6       0.70454    0.66943    0.21051   1.00
H2       0.72990    0.76844    0.22111   1.00
C6       0.78061    0.77920    0.19282   1.00
H2       0.81816    0.84209    0.25325   1.00
C6       0.92439    0.87499    0.25515   1.00
C6       0.86876    0.90414    0.22751   1.00
H2       0.84508    0.68209    0.22259   1.00
C6       0.91673    0.76733    0.20482   1.00
C6       0.93569    0.74385    0.24018   1.00
C6       0.65309    0.61580    0.30086   1.00
C6       0.70987    0.67519    0.33319   1.00
H2       0.62632    0.67590    0.31934   1.00
H2       0.77114    0.82047    0.32828   1.00
C6       0.77819    0.90102    0.30977   1.00
C6       0.68011    0.82600    0.33252   1.00
H2       0.66280    0.81612    0.28439   1.00
C6       0.64942    0.74285    0.26210   1.00
C6       0.57209    0.72241    0.29156   1.00
H2       0.67780    0.64390    0.22443   1.00
H2       0.72855    0.64168    0.20439   1.00
H2       0.66561    0.66451    0.19974   1.00
H2       0.74220    0.79012    0.18670   1.00
H2       0.82901    0.82677    0.19291   1.00
H2       0.78515    0.74523    0.18197   1.00
H2       0.93394    0.92068    0.26351   1.00
H2       0.92219    0.83883    0.26642   1.00
H2       0.96818    0.88918    0.24529   1.00
H2       0.82151    0.89339    0.21997   1.00
H2       0.88709    0.95273    0.23541   1.00
H2       0.90667    0.91154    0.21604   1.00
H2       0.94229    0.82295    0.20495   1.00
H2       0.95525    0.75277    0.20175   1.00
H2       0.88211    0.74825    0.19198   1.00
H2       0.98122    0.79423    0.23933   1.00
H2       0.91994    0.73520    0.25592   1.00
H2       0.95123    0.70662    0.23630   1.00
H2       0.69633    0.60841    0.29800   1.00
H2       0.61493    0.57062    0.30898   1.00
H2       0.63076    0.61676    0.28633   1.00
H2       0.67695    0.62694    0.34095   1.00
H2       0.75738    0.67621    0.32980   1.00
H2       0.72057    0.71539    0.34415   1.00
H2       0.80179    0.93778    0.32212   1.00
H2       0.81956    0.90649    0.29997   1.00
H2       0.74646    0.91557    0.30108   1.00
H2       0.64926    0.77644    0.33975   1.00
H2       0.70371    0.86350    0.34470   1.00
H2       0.64633    0.83869    0.32414   1.00
H2       0.63836    0.69039    0.26043   1.00
H2       0.61266    0.74922    0.25300   1.00
H2       0.69939    0.77600    0.25560   1.00
H2       0.54096    0.73598    0.28210   1.00
H2       0.55095    0.66733    0.29034   1.00
H2       0.56586    0.73424    0.30716   1.00
C4       0.79740    0.16336    0.28609   1.00
C4       0.82146    0.13527    0.30123   1.00
C3       0.73042    0.15368    0.28589   1.00
C3       0.77924    0.08970    0.31659   1.00
C3       0.84204    0.20255    0.27000   1.00
C3       0.89160    0.15347    0.30122   1.00
C2       0.75155    0.21903    0.25437   1.00
C2       0.87365    0.07944    0.33104   1.00
C3       0.70796    0.18040    0.27042   1.00
C3       0.80472    0.06304    0.33120   1.00
C3       0.81881    0.23014    0.25474   1.00
C3       0.91558    0.12376    0.31554   1.00
H1       0.69607    0.12714    0.29702   1.00
H1       0.72866    0.07421    0.31753   1.00
C5       0.90967    0.21417    0.26930   1.00
C5       0.93733    0.20070    0.28683   1.00
H1       0.65881    0.17132    0.27099   1.00
H1       0.77195    0.03078    0.34205   1.00
H1       0.85198    0.25973    0.24360   1.00
H1       0.96485    0.13391    0.31453   1.00
O3       0.94861    0.24196    0.25214   1.00
O3       1.00707    0.22920    0.28898   1.00
Si1      0.95014    0.19199    0.23454   1.00
Si1      1.04837    0.29651    0.30329   1.00
C6       0.99617    0.25590    0.21632   1.00
C6       0.99879    0.15678    0.24390   1.00
C6       0.86831    0.13199    0.22550   1.00
C6       1.00121    0.32804    0.31610   1.00
C6       1.08862    0.27077    0.32111   1.00
C6       1.11203    0.36101    0.28814   1.00
C6       0.97086    0.30801    0.21256   1.00
H2       1.04603    0.28536    0.22353   1.00
C6       1.01075    0.23723    0.19467   1.00
H2       1.03146    0.19493    0.25501   1.00
C6       0.96118    0.08772    0.25574   1.00
C6       1.04839    0.14892    0.22907   1.00
H2       0.84527    0.16374    0.22285   1.00
C6       0.86441    0.09638    0.20476   1.00
C6       0.81791    0.07201    0.23967   1.00
C6       0.95602    0.34802    0.30314   1.00
C6       0.95759    0.28908    0.33512   1.00
H2       1.04143    0.37597    0.32240   1.00
H2       1.04673    0.23356    0.33045   1.00
C6       1.12422    0.23203    0.31245   1.00
C6       1.14073    0.32627    0.33594   1.00
H2       1.15303    0.34891    0.28800   1.00
C6       1.09378    0.36179    0.26538   1.00
C6       1.14503    0.43653    0.29569   1.00
H2       0.96931    0.33262    0.22664   1.00
H2       0.91979    0.28295    0.20592   1.00
H2       1.00506    0.34875    0.20228   1.00
H2       1.06009    0.27762    0.18914   1.00
H2       1.01209    0.18992    0.19446   1.00
H2       0.97286    0.23229    0.18352   1.00
H2       0.99756    0.07907    0.26429   1.00
H2       0.92511    0.08709    0.26676   1.00
H2       0.93404    0.04474    0.24540   1.00
H2       1.08438    0.19753    0.22208   1.00
H2       1.07923    0.13149    0.23707   1.00
H2       1.02024    0.11182    0.21715   1.00
H2       0.89627    0.07275    0.20496   1.00
H2       0.81230    0.05674    0.20108   1.00
H2       0.88018    0.13232    0.19225   1.00
H2       0.82502    0.02786    0.23858   1.00
H2       0.82265    0.08594    0.25555   1.00
H2       0.76515    0.05491    0.23532   1.00
H2       0.90660    0.30387    0.29965   1.00
H2       0.94620    0.38406    0.31143   1.00
H2       0.98045    0.37249    0.28893   1.00
H2       0.93956    0.31967    0.34296   1.00
H2       0.91265    0.24100    0.33110   1.00
H2       0.98696    0.27873    0.34622   1.00
H2       1.13734    0.20819    0.32474   1.00
H2       1.09055    0.19113    0.30214   1.00
H2       1.17105    0.26606    0.30429   1.00
H2       1.11940    0.35474    0.34321   1.00
H2       1.15462    0.30249    0.34807   1.00
H2       1.18762    0.36227    0.32811   1.00
H2       1.05118    0.37093    0.26348   1.00
H2       1.13720    0.40063    0.25682   1.00
H2       1.07962    0.31298    0.25846   1.00
H2       1.19034    0.46998    0.28676   1.00
H2       1.10954    0.45579    0.29436   1.00
H2       1.16141    0.44167    0.31146   1.00
C4       0.79933    0.64070    0.78410   1.00
C4       0.82292    0.69120    0.79974   1.00
C3       0.74523    0.62787    0.77065   1.00
C3       0.79082    0.72951    0.80467   1.00
C3       0.83053    0.59972    0.78185   1.00
C3       0.88195    0.70477    0.81116   1.00
C2       0.75237    0.53536    0.75353   1.00
C2       0.87283    0.79135    0.83188   1.00
C3       0.72211    0.57641    0.75585   1.00
C3       0.81543    0.77866    0.82017   1.00
C3       0.80730    0.54892    0.76658   1.00
C3       0.90418    0.75242    0.82729   1.00
H1       0.72119    0.65570    0.77115   1.00
H1       0.74838    0.72254    0.79723   1.00
C5       0.88490    0.60994    0.79480   1.00
C5       0.91815    0.67038    0.80658   1.00
H1       0.68245    0.56914    0.74665   1.00
H1       0.79050    0.80523    0.82295   1.00
H1       0.83141    0.52120    0.76478   1.00
H1       0.94385    0.75839    0.83615   1.00
O3       0.90712    0.56332    0.79486   1.00
O3       0.98221    0.69202    0.81456   1.00
Si1      0.87565    0.50085    0.81124   1.00
Si1      1.04862    0.75272    0.80303   1.00
C6       0.91379    0.45574    0.80113   1.00
C6       0.91013    0.53581    0.83517   1.00
C6       0.78581    0.45135    0.81044   1.00
C6       1.03505    0.79003    0.78126   1.00
C6       1.08778    0.81491    0.82198   1.00
C6       1.10324    0.72066    0.79718   1.00
C6       0.90771    0.44473    0.77757   1.00
H2       0.96787    0.49071    0.80400   1.00
C6       0.89841    0.38550    0.81033   1.00
H2       0.95764    0.58155    0.83101   1.00
C6       0.87069    0.56092    0.84890   1.00
C6       0.93122    0.49480    0.84969   1.00
H2       0.77598    0.44221    0.79419   1.00
C6       0.75184    0.37924    0.82065   1.00
C6       0.74177    0.48293    0.81806   1.00
C6       0.99491    0.74228    0.76311   1.00
C6       1.00747    0.84076    0.78377   1.00
H2       1.08686    0.82236    0.77563   1.00
H2       1.05292    0.83453    0.82408   1.00
C6       1.09420    0.78848    0.84336   1.00
C6       1.15910    0.87788    0.81703   1.00
H2       1.13034    0.72577    0.81135   1.00
C6       1.06813    0.64337    0.79179   1.00
C6       1.15959    0.75878    0.78070   1.00
H2       0.92773    0.49305    0.76945   1.00
H2       0.85467    0.41191    0.77297   1.00
H2       0.93698    0.42116    0.77237   1.00
H2       0.94355    0.37993    0.80913   1.00
H2       0.88408    0.38005    0.82624   1.00
H2       0.85753    0.34226    0.80225   1.00
H2       0.90361    0.59400    0.86101   1.00
H2       0.85354    0.59084    0.84044   1.00
H2       0.82657    0.51810    0.85604   1.00
H2       0.96749    0.48312    0.84243   1.00
H2       0.95661    0.52424    0.86330   1.00
H2       0.88674    0.44730    0.85460   1.00
H2       0.76864    0.38269    0.83636   1.00
H2       0.69613    0.35434    0.82067   1.00
H2       0.76348    0.34479    0.81240   1.00
H2       0.73201    0.47590    0.83434   1.00
H2       0.76484    0.53704    0.81507   1.00
H2       0.69215    0.45812    0.81047   1.00
H2       0.93997    0.71799    0.76529   1.00
H2       1.00682    0.77152    0.74902   1.00
H2       1.00783    0.70251    0.76074   1.00
H2       1.01099    0.86660    0.76942   1.00
H2       0.95419    0.81509    0.78834   1.00
H2       1.03693    0.88081    0.79477   1.00
H2       1.10814    0.82831    0.85480   1.00
H2       1.04582    0.74490    0.84820   1.00
H2       1.13291    0.77324    0.84356   1.00
H2       1.15890    0.90108    0.80254   1.00
H2       1.17349    0.91729    0.82864   1.00
H2       1.19879    0.86391    0.81661   1.00
H2       1.03693    0.63102    0.77815   1.00
H2       1.10540    0.62676    0.78955   1.00
H2       1.03521    0.61327    0.80417   1.00
H2       1.19623    0.74068    0.78070   1.00
H2       1.13757    0.75053    0.76550   1.00
H2       1.18857    0.81353    0.78350   1.00
C4       0.36176    0.16709    0.78491   1.00
C4       0.30982    0.13881    0.80011   1.00
C3       0.36175    0.20821    0.76865   1.00
C3       0.24966    0.14360    0.79954   1.00
C3       0.41649    0.15295    0.78568   1.00
C3       0.31794    0.10379    0.81693   1.00
C2       0.46687    0.21956    0.75420   1.00
C2       0.20642    0.07891    0.83121   1.00
C3       0.41262    0.23342    0.75365   1.00
C3       0.19966    0.11505    0.81475   1.00
C3       0.46800    0.17992    0.77061   1.00
C3       0.26560    0.07287    0.83163   1.00
H1       0.32492    0.22124    0.76727   1.00
H1       0.24019    0.16761    0.78800   1.00
C5       0.41956    0.11220    0.80154   1.00
C5       0.37785    0.09923    0.81891   1.00
H1       0.40968    0.26247    0.74217   1.00
H1       0.15749    0.12062    0.81364   1.00
H1       0.50794    0.17093    0.77168   1.00
H1       0.27019    0.04429    0.84287   1.00
O3       0.46556    0.08932    0.80040   1.00
O3       0.39290    0.07785    0.83683   1.00
Si1      0.44213    0.01447    0.79067   1.00
Si1      0.43196    0.13359    0.85480   1.00
C6       0.52358    0.02204    0.79026   1.00
C6       0.38822    -0.04728   0.80842   1.00
C6       0.40812    0.00397    0.76597   1.00
C6       0.45056    0.21838    0.85077   1.00
C6       0.37629    0.09870    0.87551   1.00
C6       0.50722    0.13213    0.86050   1.00
C6       0.58269    0.09038    0.78137   1.00
H2       0.53502    0.02326    0.80640   1.00
C6       0.53440    -0.03569   0.78096   1.00
H2       0.40484    -0.01901   0.82265   1.00
C6       0.30975    -0.07466   0.80708   1.00
C6       0.39504    -0.11212   0.81160   1.00
H2       0.44566    0.05100    0.75849   1.00
C6       0.40375    -0.05589   0.75290   1.00
C6       0.33681    -0.00130   0.76285   1.00
C6       0.49442    0.25726    0.83184   1.00
C6       0.39175    0.23568    0.85200   1.00
H2       0.48244    0.24488    0.86385   1.00
H2       0.33271    0.10427    0.87133   1.00
C6       0.34638    0.02057    0.87930   1.00
C6       0.40174    0.13464    0.89653   1.00
H2       0.49018    0.08805    0.87047   1.00
C6       0.54284    0.11820    0.84239   1.00
C6       0.56496    0.19416    0.87232   1.00
H2       0.58664    0.13468    0.78922   1.00
H2       0.57484    0.09533    0.76524   1.00
H2       0.63205    0.09316    0.78309   1.00
H2       0.57461    -0.03887   0.78921   1.00
H2       0.48882    -0.08571   0.78160   1.00
H2       0.55061    -0.02580   0.76512   1.00
H2       0.28430    -0.10067   0.82112   1.00
H2       0.29833    -0.03376   0.80497   1.00
H2       0.28662    -0.11118   0.79470   1.00
H2       0.44706    -0.09844   0.81566   1.00
H2       0.36264    -0.14361   0.82405   1.00
H2       0.37997    -0.14379   0.79797   1.00
H2       0.37635    -0.10440   0.76097   1.00
H2       0.37776    -0.06143   0.73844   1.00
H2       0.45415    -0.04674   0.74886   1.00
H2       0.29476    -0.05360   0.76434   1.00
H2       0.32703    0.02945    0.77341   1.00
H2       0.33363    0.01603    0.74761   1.00
H2       0.46342    0.24524    0.81818   1.00
H2       0.51875    0.31237    0.83410   1.00
H2       0.53498    0.24581    0.82898   1.00
H2       0.41257    0.29091    0.85206   1.00
H2       0.35710    0.21552    0.83916   1.00
H2       0.36198    0.21650    0.86589   1.00
H2       0.30408    0.00148    0.89010   1.00
H2       0.32610    -0.00876   0.86534   1.00
H2       0.38453    0.00944    0.88542   1.00
H2       0.42178    0.18950    0.89546   1.00
H2       0.35963    0.11480    0.90741   1.00
H2       0.44132    0.12591    0.90284   1.00
H2       0.56013    0.15787    0.83084   1.00
H2       0.58666    0.11414    0.84740   1.00
H2       0.50746    0.07004    0.83527   1.00
H2       0.60386    0.18262    0.87762   1.00
H2       0.59026    0.23952    0.86274   1.00
H2       0.54527    0.20678    0.88572   1.00
C4       0.83260    0.19491    0.78507   1.00
C4       0.86082    0.17108    0.80025   1.00
C3       0.78447    0.15184    0.77037   1.00
C3       0.84852    0.10318    0.80108   1.00
C3       0.85412    0.26584    0.78422   1.00
C3       0.90368    0.21718    0.81556   1.00
C2       0.78050    0.24755    0.75426   1.00
C2       0.92103    0.12725    0.83115   1.00
C3       0.75940    0.17744    0.75531   1.00
C3       0.87726    0.08166    0.81622   1.00
C3       0.82727    0.29046    0.76914   1.00
C3       0.93446    0.19524    0.83016   1.00
H1       0.76603    0.10058    0.77021   1.00
H1       0.81868    0.06746    0.79065   1.00
C5       0.90211    0.31166    0.79848   1.00
C5       0.91612    0.28503    0.81615   1.00
H1       0.72505    0.14394    0.74499   1.00
H1       0.86611    0.03179    0.81617   1.00
H1       0.84174    0.34115    0.76906   1.00
H1       0.96844    0.22997    0.84022   1.00
O3       0.93118    0.38095    0.79559   1.00
O3       0.94582    0.32608    0.83290   1.00
Si1      1.00400    0.42291    0.78373   1.00
Si1      0.89743    0.32078    0.85196   1.00
C6       1.00553    0.50143    0.78192   1.00
C6       1.06790    0.42886    0.80028   1.00
C6       1.00345    0.38948    0.75948   1.00
C6       0.80940    0.26039    0.85059   1.00
C6       0.93384    0.30083    0.87245   1.00
C6       0.90957    0.40301    0.85604   1.00
C6       0.93805    0.49749    0.77431   1.00
H2       1.01053    0.51716    0.79778   1.00
C6       1.06454    0.56364    0.77040   1.00
H2       1.04454    0.42435    0.81510   1.00
C6       1.08698    0.37135    0.79958   1.00
C6       1.13771    0.49719    0.80100   1.00
H2       0.95622    0.38306    0.75295   1.00
C6       1.06175    0.43657    0.74445   1.00
C6       0.99962    0.31844    0.75765   1.00
C6       0.76797    0.26476    0.83225   1.00
C6       0.78469    0.18284    0.85363   1.00
H2       0.78935    0.27324    0.86389   1.00
H2       0.92158    0.24856    0.86938   1.00
C6       1.01346    0.34305    0.87405   1.00
C6       0.90554    0.30051    0.89411   1.00
H2       0.95688    0.42900    0.86474   1.00
C6       0.92284    0.44800    0.83680   1.00
C6       0.85489    0.40967    0.86882   1.00
H2       0.89442    0.46284    0.78361   1.00
H2       0.92698    0.47979    0.75860   1.00
H2       0.94146    0.54733    0.77511   1.00
H2       1.07514    0.61136    0.77767   1.00
H2       1.11186    0.56234    0.77019   1.00
H2       1.05121    0.56677    0.75466   1.00
H2       1.11558    0.37293    0.81314   1.00
H2       1.04206    0.32071    0.79917   1.00
H2       1.11879    0.37723    0.78644   1.00
H2       1.13073    0.54043    0.80446   1.00
H2       1.17077    0.49609    0.81292   1.00
H2       1.16500    0.50667    0.78662   1.00
H2       1.11191    0.45521    0.75130   1.00
H2       1.06008    0.41005    0.73039   1.00
H2       1.05685    0.47988    0.73972   1.00
H2       1.05002    0.32323    0.75813   1.00
H2       0.96944    0.28275    0.76945   1.00
H2       0.97639    0.29443    0.74318   1.00
H2       0.77274    0.23922    0.81887   1.00
H2       0.71368    0.23984    0.83596   1.00
H2       0.78389    0.31720    0.82817   1.00
H2       0.72920    0.15346    0.85523   1.00
H2       0.79783    0.16126    0.84085   1.00
H2       0.80557    0.17349    0.86737   1.00
H2       1.03183    0.31952    0.88497   1.00
H2       1.03758    0.34478    0.85953   1.00
H2       1.03152    0.39535    0.87896   1.00
H2       0.85000    0.27031    0.89459   1.00
H2       0.92475    0.27790    0.90509   1.00
H2       0.92131    0.35214    0.89927   1.00
H2       0.87971    0.42588    0.82637   1.00
H2       0.93380    0.49936    0.84075   1.00
H2       0.96703    0.45336    0.82873   1.00
H2       0.87321    0.46290    0.87288   1.00
H2       0.80733    0.39129    0.86039   1.00
H2       0.84343    0.38125    0.88300   1.00
C4       -0.02841   0.46290    0.38186   1.00
C4       0.02224    0.48738    0.36626   1.00
C3       -0.07372   0.39264    0.38570   1.00
C3       0.02852    0.44435    0.35180   1.00
C3       -0.03529   0.51092    0.39419   1.00
C3       0.06969    0.55875    0.36490   1.00
C2       -0.13169   0.41754    0.41303   1.00
C2       0.12508    0.54098    0.33488   1.00
C3       -0.12420   0.37054    0.40078   1.00
C3       0.07891    0.47031    0.33665   1.00
C3       -0.08571   0.48758    0.40958   1.00
C3       0.11820    0.58415    0.34900   1.00
H1       -0.07121   0.35546    0.37771   1.00
H1       -0.00358   0.39295    0.35176   1.00
C5       0.00841    0.58192    0.39115   1.00
C5       0.06816    0.60448    0.37928   1.00
H1       -0.15584   0.31908    0.40277   1.00
H1       0.08141    0.43671    0.32672   1.00
H1       -0.08880   0.52258    0.41868   1.00
H1       0.14892    0.63571    0.34746   1.00
O3       -0.00556   0.62775    0.40066   1.00
O3       0.12124    0.67097    0.38074   1.00
Si1      -0.05036   0.65567    0.38894   1.00
Si1      0.18749    0.68699    0.39451   1.00
C6       -0.05986   0.69940    0.40972   1.00
C6       0.00207    0.71293    0.37002   1.00
C6       -0.13015   0.58972    0.38035   1.00
C6       0.18941    0.61775    0.40623   1.00
C6       0.25545    0.72671    0.37729   1.00
C6       0.19709    0.74779    0.41284   1.00
C6       -0.08224   0.65901    0.43023   1.00
H2       -0.00760   0.74053    0.41220   1.00
C6       -0.10380   0.73514    0.40787   1.00
H2       0.05298    0.73015    0.37607   1.00
C6       0.00134    0.68414    0.34839   1.00
C6       -0.00158   0.77928    0.36625   1.00
H2       -0.14967   0.55702    0.39373   1.00
C6       -0.18517   0.60959    0.37468   1.00
C6       -0.13306   0.54274    0.36237   1.00
C6       0.12957    0.57110    0.42081   1.00
C6       0.20405    0.56883    0.39309   1.00
H2       0.23432    0.64355    0.41595   1.00
H2       0.24797    0.68559    0.36709   1.00
C6       0.25547    0.78268    0.36333   1.00
C6       0.32932    0.75765    0.38598   1.00
H2       0.22302    0.79624    0.40470   1.00
C6       0.13007    0.74270    0.42099   1.00
C6       0.24207    0.75681    0.43192   1.00
H2       -0.04762   0.64081    0.43465   1.00
H2       -0.13363   0.61489    0.42914   1.00
H2       -0.08186   0.69131    0.44261   1.00
H2       -0.08197   0.78095    0.41732   1.00
H2       -0.10653   0.75055    0.39245   1.00
H2       -0.15608   0.70254    0.41314   1.00
H2       0.04546    0.72077    0.33956   1.00
H2       0.00415    0.63758    0.34901   1.00
H2       -0.04437   0.67387    0.33999   1.00
H2       0.00847    0.80906    0.38013   1.00
H2       0.03697    0.81278    0.35529   1.00
H2       -0.05138   0.76723    0.36028   1.00
H2       -0.16523   0.65119    0.36367   1.00
H2       -0.23107   0.56664    0.36819   1.00
H2       -0.20267   0.62463    0.38801   1.00
H2       -0.13389   0.56413    0.34761   1.00
H2       -0.09063   0.53334    0.36220   1.00
H2       -0.17951   0.49294    0.36344   1.00
H2       0.08562    0.53228    0.41253   1.00
H2       0.14549    0.54434    0.43133   1.00
H2       0.11292    0.60007    0.42998   1.00
H2       0.21312    0.53499    0.40281   1.00
H2       0.16155    0.53641    0.38321   1.00
H2       0.24959    0.59662    0.38376   1.00
H2       0.29229    0.79583    0.35099   1.00
H2       0.20566    0.76464    0.35627   1.00
H2       0.26888    0.82934    0.37167   1.00
H2       0.33469    0.72120    0.39550   1.00
H2       0.36625    0.77174    0.37362   1.00
H2       0.34368    0.80359    0.39486   1.00
H2       0.09797    0.69472    0.42887   1.00
H2       0.14058    0.78449    0.43135   1.00
H2       0.10081    0.74605    0.40846   1.00
H2       0.25256    0.80251    0.44043   1.00
H2       0.21668    0.71328    0.44219   1.00
H2       0.29133    0.76279    0.42772   1.00
C4       0.49133    1.02843    0.38185   1.00
C4       0.46516    0.97778    0.36625   1.00
C3       0.46665    1.07401    0.38562   1.00
C3       0.41616    0.97175    0.35171   1.00
C3       0.54594    1.03503    0.39427   1.00
C3       0.48876    0.93007    0.36498   1.00
C2       0.54924    1.13170    0.41303   1.00
C2       0.41591    0.87491    0.33488   1.00
C3       0.49502    1.12448    0.40069   1.00
C3       0.39171    0.92135    0.33657   1.00
C3       0.57301    1.08545    0.40966   1.00
C3       0.46566    0.88154    0.34908   1.00
H1       0.42718    1.07172    0.37756   1.00
H1       0.39710    1.00406    0.35161   1.00
C5       0.57296    0.99105    0.39131   1.00
C5       0.53570    0.93134    0.37944   1.00
H1       0.47541    1.15633    0.40263   1.00
H1       0.35585    0.91904    0.32658   1.00
H1       0.61089    1.08834    0.41882   1.00
H1       0.48629    0.85061    0.34760   1.00
O3       0.63254    1.00473    0.40091   1.00
O3       0.54876    0.87804    0.38096   1.00
Si1      0.70546    1.04924    0.38927   1.00
Si1      0.49811    0.81189    0.39471   1.00
C6       0.75831    1.05848    0.41013   1.00
C6       0.71025    0.99663    0.37040   1.00
C6       0.71983    1.12917    0.38063   1.00
C6       0.42697    0.81037    0.40631   1.00
C6       0.46980    0.74389    0.37750   1.00
C6       0.54884    0.80199    0.41313   1.00
C6       0.74020    1.08104    0.43059   1.00
H2       0.74688    1.00613    0.41264   1.00
C6       0.83804    1.10210    0.40838   1.00
H2       0.67629    0.94577    0.37645   1.00
C6       0.68256    0.99750    0.34873   1.00
C6       0.78012    0.99989    0.36675   1.00
H2       0.70662    1.14883    0.39397   1.00
C6       0.79491    1.18392    0.37504   1.00
C6       0.67615    1.13233    0.36258   1.00
C6       0.44026    0.87032    0.42086   1.00
C6       0.36369    0.79604    0.39308   1.00
H2       0.40753    0.76545    0.41603   1.00
H2       0.43644    0.75158    0.36724   1.00
C6       0.52578    0.74355    0.36363   1.00
C6       0.42645    0.67006    0.38618   1.00
H2       0.57126    0.77585    0.40505   1.00
C6       0.61086    0.86885    0.42133   1.00
C6       0.51247    0.75710    0.43219   1.00
H2       0.68726    1.04662    0.43496   1.00
H2       0.74775    1.13253    0.42947   1.00
H2       0.77185    1.08048    0.44303   1.00
H2       0.86169    1.08007    0.41789   1.00
H2       0.85634    1.10471    0.39298   1.00
H2       0.85788    1.15441    0.41363   1.00
H2       0.67497    0.95330    0.33992   1.00
H2       0.63332    0.99496    0.34927   1.00
H2       0.71828    1.04314    0.34035   1.00
H2       0.79955    0.98971    0.38067   1.00
H2       0.77501    0.96125    0.35582   1.00
H2       0.81813    1.04961    0.36080   1.00
H2       0.81654    1.16380    0.36408   1.00
H2       0.79819    1.22993    0.36852   1.00
H2       0.82726    1.20129    0.38841   1.00
H2       0.69852    1.13303    0.34785   1.00
H2       0.62424    1.09007    0.36236   1.00
H2       0.67307    1.17893    0.36360   1.00
H2       0.44573    0.91435    0.41255   1.00
H2       0.39747    0.85460    0.43132   1.00
H2       0.48572    0.88676    0.43008   1.00
H2       0.32072    0.78719    0.40273   1.00
H2       0.37412    0.83860    0.38318   1.00
H2       0.34585    0.75047    0.38376   1.00
H2       0.50214    0.70675    0.35129   1.00
H2       0.55784    0.79331    0.35659   1.00
H2       0.55875    0.72992    0.37204   1.00
H2       0.38458    0.66491    0.39563   1.00
H2       0.40364    0.63315    0.37382   1.00
H2       0.45773    0.65548    0.39513   1.00
H2       0.59510    0.90114    0.42915   1.00
H2       0.64185    0.85814    0.43175   1.00
H2       0.64372    0.89800    0.40882   1.00
H2       0.54740    0.74638    0.44077   1.00
H2       0.49438    0.78266    0.44241   1.00
H2       0.46909    0.70794    0.42796   1.00
C4       0.53711    0.50867    0.38185   1.00
C4       0.51263    0.53484    0.36625   1.00
C3       0.60737    0.53336    0.38562   1.00
C3       0.55560    0.58385    0.35172   1.00
C3       0.48910    0.45405    0.39427   1.00
C3       0.44131    0.51122    0.36497   1.00
C2       0.58247    0.45076    0.41303   1.00
C2       0.45901    0.58409    0.33488   1.00
C3       0.62947    0.50499    0.40070   1.00
C3       0.52965    0.60830    0.33658   1.00
C3       0.51245    0.42698    0.40965   1.00
C3       0.41588    0.53433    0.34908   1.00
H1       0.64456    0.57284    0.37757   1.00
H1       0.60697    0.60293    0.35162   1.00
C5       0.41810    0.42702    0.39130   1.00
C5       0.39564    0.46427    0.37943   1.00
H1       0.68093    0.52461    0.40263   1.00
H1       0.56320    0.64417    0.32659   1.00
H1       0.47746    0.38909    0.41881   1.00
H1       0.36433    0.51369    0.34759   1.00
O3       0.37220    0.36743    0.40090   1.00
O3       0.32928    0.45120    0.38095   1.00
Si1      0.34381    0.29451    0.38926   1.00
Si1      0.31377    0.50184    0.39470   1.00
C6       0.30019    0.24165    0.41011   1.00
C6       0.28642    0.28973    0.37039   1.00
C6       0.40938    0.28016    0.38062   1.00
C6       0.38337    0.57298    0.40631   1.00
C6       0.27407    0.53014    0.37749   1.00
C6       0.25311    0.45108    0.41312   1.00
C6       0.34085    0.25976    0.43058   1.00
H2       0.25927    0.25307    0.41262   1.00
C6       0.26410    0.16192    0.40836   1.00
H2       0.26951    0.32368    0.37643   1.00
C6       0.31498    0.31743    0.34871   1.00
C6       0.21982    0.21985    0.36673   1.00
H2       0.44226    0.29338    0.39396   1.00
C6       0.38908    0.20510    0.37503   1.00
C6       0.45623    0.32386    0.36257   1.00
C6       0.43002    0.55969    0.42086   1.00
C6       0.43231    0.63627    0.39308   1.00
H2       0.35788    0.59240    0.41603   1.00
H2       0.31512    0.56352    0.36723   1.00
C6       0.21776    0.47417    0.36362   1.00
C6       0.24357    0.57348    0.38617   1.00
H2       0.20456    0.42866    0.40504   1.00
C6       0.25797    0.38907    0.42131   1.00
C6       0.24457    0.48743    0.43218   1.00
H2       0.35936    0.31269    0.43494   1.00
H2       0.38480    0.25222    0.42946   1.00
H2       0.30864    0.22810    0.44301   1.00
H2       0.21842    0.13826    0.41787   1.00
H2       0.24842    0.14363    0.39296   1.00
H2       0.29658    0.14209    0.41361   1.00
H2       0.27837    0.32502    0.33991   1.00
H2       0.36169    0.36668    0.34926   1.00
H2       0.32491    0.28172    0.34034   1.00
H2       0.19021    0.20041    0.38065   1.00
H2       0.18629    0.22496    0.35580   1.00
H2       0.23155    0.18185    0.36078   1.00
H2       0.34733    0.18347    0.36407   1.00
H2       0.43181    0.20183    0.36851   1.00
H2       0.37409    0.17273    0.38839   1.00
H2       0.43457    0.30150    0.34784   1.00
H2       0.46588    0.37577    0.36235   1.00
H2       0.50592    0.32696    0.36359   1.00
H2       0.46860    0.55423    0.41255   1.00
H2       0.45708    0.60247    0.43132   1.00
H2       0.40101    0.51423    0.43008   1.00
H2       0.46643    0.67924    0.40273   1.00
H2       0.46446    0.62585    0.38318   1.00
H2       0.40457    0.65410    0.38376   1.00
H2       0.20461    0.49781    0.35128   1.00
H2       0.23548    0.44212    0.35657   1.00
H2       0.17116    0.44118    0.37202   1.00
H2       0.28028    0.61534    0.39563   1.00
H2       0.22947    0.59629    0.37381   1.00
H2       0.19771    0.54219    0.39512   1.00
H2       0.30601    0.40483    0.42914   1.00
H2       0.21627    0.35807    0.43173   1.00
H2       0.25428    0.35622    0.40881   1.00
H2       0.19893    0.45250    0.44076   1.00
H2       0.28823    0.50553    0.44240   1.00
H2       0.23879    0.53081    0.42795   1.00
C4       0.19716    0.35856    0.21608   1.00
C4       0.17254    0.30784    0.20050   1.00
C3       0.16087    0.35236    0.23426   1.00
C3       0.10663    0.24891    0.20069   1.00
C3       0.26112    0.41957    0.21336   1.00
C3       0.21580    0.31580    0.18373   1.00
C2       0.24884    0.46490    0.24641   1.00
C2       0.12596    0.20839    0.16818   1.00
C3       0.18576    0.40419    0.24896   1.00
C3       0.08418    0.20021    0.18508   1.00
C3       0.28595    0.47071    0.22855   1.00
C3       0.19113    0.26764    0.16773   1.00
H1       0.11538    0.30990    0.23739   1.00
H1       0.07284    0.23983    0.21211   1.00
C5       0.30000    0.42898    0.19554   1.00
C5       0.28318    0.37200    0.18290   1.00
H1       0.15704    0.39708    0.26174   1.00
H1       0.03623    0.15829    0.18611   1.00
H1       0.33278    0.51336    0.22664   1.00
H1       0.22110    0.27633    0.15523   1.00
O3       0.35561    0.49198    0.19141   1.00
O3       0.33001    0.37371    0.16912   1.00
Si1      0.34665    0.54594    0.17715   1.00
Si1      0.37319    0.33607    0.17493   1.00
C6       0.42908    0.61643    0.18095   1.00
C6       0.33581    0.51596    0.15198   1.00
C6       0.28315    0.56317    0.18596   1.00
C6       0.35571    0.29223    0.19832   1.00
C6       0.35419    0.27812    0.15493   1.00
C6       0.46033    0.39797    0.17337   1.00
C6       0.45426    0.63146    0.20351   1.00
H2       0.46133    0.59964    0.17357   1.00
C6       0.45029    0.68790    0.17145   1.00
H2       0.36090    0.48550    0.15234   1.00
C6       0.26174    0.46696    0.14418   1.00
C6       0.37147    0.56891    0.13450   1.00
H2       0.29543    0.57282    0.20208   1.00
C6       0.28435    0.62838    0.17745   1.00
C6       0.20602    0.50608    0.18467   1.00
C6       0.36305    0.33307    0.21818   1.00
C6       0.28883    0.22161    0.20075   1.00
H2       0.39607    0.27930    0.19913   1.00
H2       0.30083    0.23993    0.15743   1.00
C6       0.35693    0.30648    0.13307   1.00
C6       0.39437    0.23862    0.15405   1.00
H2       0.47172    0.40097    0.15718   1.00
C6       0.47992    0.47200    0.17957   1.00
C6       0.51293    0.38278    0.18416   1.00
H2       0.45178    0.58684    0.21071   1.00
H2       0.42347    0.64664    0.21250   1.00
H2       0.50740    0.67238    0.20441   1.00
H2       0.50442    0.71437    0.16746   1.00
H2       0.42193    0.68436    0.15777   1.00
H2       0.44338    0.72108    0.18203   1.00
H2       0.26268    0.44101    0.13030   1.00
H2       0.23161    0.42709    0.15511   1.00
H2       0.23527    0.49491    0.14073   1.00
H2       0.42632    0.59978    0.13699   1.00
H2       0.36513    0.54349    0.11988   1.00
H2       0.35007    0.60254    0.13302   1.00
H2       0.28406    0.62840    0.16089   1.00
H2       0.24054    0.63233    0.18264   1.00
H2       0.32883    0.67464    0.18278   1.00
H2       0.18331    0.50628    0.17008   1.00
H2       0.19765    0.45507    0.18689   1.00
H2       0.17663    0.51426    0.19638   1.00
H2       0.31743    0.33620    0.22126   1.00
H2       0.37084    0.30798    0.23125   1.00
H2       0.40644    0.38469    0.21761   1.00
H2       0.29004    0.19677    0.21485   1.00
H2       0.24346    0.22651    0.20133   1.00
H2       0.28246    0.18642    0.18854   1.00
H2       0.33338    0.26463    0.12213   1.00
H2       0.32873    0.33394    0.13223   1.00
H2       0.40915    0.34087    0.12811   1.00
H2       0.39346    0.21519    0.16859   1.00
H2       0.37140    0.19741    0.14289   1.00
H2       0.44744    0.27212    0.14962   1.00
H2       0.46841    0.47535    0.19545   1.00
H2       0.53402    0.50784    0.17704   1.00
H2       0.45164    0.48922    0.17039   1.00
H2       0.56504    0.41956    0.17952   1.00
H2       0.51025    0.38583    0.20065   1.00
H2       0.50459    0.33238    0.18028   1.00
C4       0.63391    0.83559    0.21386   1.00
C4       0.68595    0.86382    0.19869   1.00
C3       0.57052    0.83378    0.21217   1.00
C3       0.68237    0.89853    0.18121   1.00
C3       0.64578    0.80845    0.23196   1.00
C3       0.74506    0.85716    0.20091   1.00
C2       0.53268    0.78071    0.24567   1.00
C2       0.79403    0.92082    0.16892   1.00
C3       0.52143    0.80746    0.22767   1.00
C3       0.73460    0.92570    0.16663   1.00
C3       0.59509    0.78097    0.24725   1.00
C3       0.79841    0.88744    0.18650   1.00
H1       0.55805    0.85131    0.19959   1.00
H1       0.64191    0.90548    0.17861   1.00
C5       0.70808    0.80868    0.23461   1.00
C5       0.75097    0.82091    0.21758   1.00
H1       0.47672    0.80795    0.22566   1.00
H1       0.72898    0.94976    0.15420   1.00
H1       0.60354    0.75996    0.25990   1.00
H1       0.84225    0.88601    0.18898   1.00
O3       0.72403    0.79315    0.25330   1.00
O3       0.80050    0.80225    0.21795   1.00
Si1      0.76965    0.85425    0.26931   1.00
Si1      0.78520    0.73178    0.20671   1.00
C6       0.76065    0.80176    0.29024   1.00
C6       0.85422    0.89699    0.26024   1.00
C6       0.73504    0.90728    0.27457   1.00
C6       0.70680    0.68407    0.19379   1.00
C6       0.85270    0.75935    0.18934   1.00
C6       0.79483    0.68063    0.22504   1.00
C6       0.68631    0.74287    0.29482   1.00
H2       0.78822    0.77635    0.28515   1.00
C6       0.79192    0.83340    0.31146   1.00
H2       0.85569    0.85751    0.25114   1.00
C6       0.87654    0.95917    0.24569   1.00
C6       0.91384    0.92064    0.27588   1.00
H2       0.68152    0.87015    0.27753   1.00
C6       0.76172    0.95331    0.29396   1.00
C6       0.73556    0.95643    0.25765   1.00
C6       0.63944    0.65976    0.20607   1.00
C6       0.69597    0.70994    0.17284   1.00
H2       0.70732    0.63749    0.18990   1.00
H2       0.84162    0.78766    0.17804   1.00
C6       0.92539    0.81095    0.19767   1.00
C6       0.85969    0.70329    0.17752   1.00
H2       0.84985    0.70116    0.22583   1.00
C6       0.77320    0.68588    0.24712   1.00
C6       0.76282    0.60264    0.22051   1.00
H2       0.66329    0.71039    0.28156   1.00
H2       0.65351    0.76311    0.29943   1.00
H2       0.68588    0.70975    0.30695   1.00
H2       0.80837    0.80146    0.31926   1.00
H2       0.83591    0.88440    0.31037   1.00
H2       0.75495    0.83637    0.32142   1.00
H2       0.92397    0.97156    0.23787   1.00
H2       0.83891    0.94868    0.23390   1.00
H2       0.88543    1.00453    0.25403   1.00
H2       0.90845    0.87805    0.28503   1.00
H2       0.96317    0.94164    0.26823   1.00
H2       0.91625    0.96015    0.28593   1.00
H2       0.81728    0.98436    0.29387   1.00
H2       0.74109    0.98775    0.29522   1.00
H2       0.74565    0.92288    0.30773   1.00
H2       0.78288    1.00547    0.25765   1.00
H2       0.72903    0.93580    0.24246   1.00
H2       0.69392    0.96689    0.26019   1.00
H2       0.62578    0.69946    0.20708   1.00
H2       0.59691    0.61593    0.19866   1.00
H2       0.64292    0.64391    0.22140   1.00
H2       0.64948    0.67062    0.16552   1.00
H2       0.69065    0.75488    0.17436   1.00
H2       0.73754    0.72181    0.16229   1.00
H2       0.96165    0.83379    0.18516   1.00
H2       0.92537    0.85287    0.20588   1.00
H2       0.94472    0.78646    0.20783   1.00
H2       0.81152    0.66587    0.17062   1.00
H2       0.89673    0.72629    0.16520   1.00
H2       0.87732    0.67656    0.18741   1.00
H2       0.71902    0.66908    0.24822   1.00
H2       0.78450    0.65577    0.25772   1.00
H2       0.80149    0.73844    0.25223   1.00
H2       0.78099    0.57881    0.23138   1.00
H2       0.70722    0.57607    0.22152   1.00
H2       0.77672    0.59361    0.20547   1.00
C4       0.16335    0.79739    0.21391   1.00
C4       0.13526    0.82146    0.19877   1.00
C3       0.15356    0.73037    0.21413   1.00
C3       0.08959    0.77921    0.18344   1.00
C3       0.20265    0.84207    0.22998   1.00
C3       0.15357    0.89162    0.19876   1.00
C2       0.21902    0.75155    0.24563   1.00
C2       0.07945    0.87365    0.16896   1.00
C3       0.18028    0.70792    0.22960   1.00
C3       0.06294    0.80469    0.16883   1.00
C3       0.23024    0.81884    0.24524   1.00
C3       0.12387    0.91561    0.18443   1.00
H1       0.12693    0.69599    0.20302   1.00
H1       0.07402    0.72860    0.18251   1.00
C5       0.21439    0.90974    0.23066   1.00
C5       0.20090    0.93738    0.21312   1.00
H1       0.17112    0.65874    0.22905   1.00
H1       0.03060    0.77190    0.15799   1.00
H1       0.25991    0.85204    0.25636   1.00
H1       0.13410    0.96491    0.18543   1.00
O3       0.24229    0.94875    0.24780   1.00
O3       0.22949    1.00711    0.21095   1.00
Si1      0.19245    0.95045    0.26541   1.00
Si1      0.29675    1.04827    0.19661   1.00
C6       0.25647    0.99649    0.28360   1.00
C6       0.15731    0.99916    0.25604   1.00
C6       0.13240    0.86870    0.27449   1.00
C6       0.32811    1.00096    0.18380   1.00
C6       0.27103    1.08852    0.17879   1.00
C6       0.36137    1.11194    0.21173   1.00
C6       0.30850    0.97108    0.28736   1.00
H2       0.28595    1.04631    0.27637   1.00
C6       0.23793    1.01122    0.30526   1.00
H2       0.19544    1.03174    0.24492   1.00
C6       0.08820    0.96159    0.24424   1.00
C6       0.14961    1.04888    0.27087   1.00
H2       0.16409    0.84559    0.27714   1.00
C6       0.09690    0.86495    0.29523   1.00
C6       0.07232    0.81829    0.26034   1.00
C6       0.34806    0.95575    0.19677   1.00
C6       0.28903    0.95728    0.16481   1.00
H2       0.37604    1.04110    0.17748   1.00
H2       0.23374    1.04662    0.16946   1.00
C6       0.23242    1.12426    0.18745   1.00
C6       0.32651    1.14051    0.16393   1.00
H2       0.34935    1.15300    0.21186   1.00
C6       0.36222    1.09378    0.23449   1.00
C6       0.43685    1.14480    0.20414   1.00
H2       0.33303    0.96943    0.27327   1.00
H2       0.28340    0.92004    0.29401   1.00
H2       0.34931    1.00529    0.29762   1.00
H2       0.27840    1.06055    0.31076   1.00
H2       0.19067    1.01263    0.30548   1.00
H2       0.23298    0.97335    0.31641   1.00
H2       0.07958    0.99797    0.23568   1.00
H2       0.08746    0.92543    0.23322   1.00
H2       0.04526    0.93455    0.25459   1.00
H2       0.19827    1.08485    0.27783   1.00
H2       0.13222    1.07974    0.26286   1.00
H2       0.11255    1.02084    0.28280   1.00
H2       0.07335    0.89687    0.29504   1.00
H2       0.05722    0.81288    0.29895   1.00
H2       0.13289    0.88073    0.30774   1.00
H2       0.02823    0.82549    0.26144   1.00
H2       0.08617    0.82294    0.24446   1.00
H2       0.05516    0.76554    0.26472   1.00
H2       0.30386    0.90638    0.20029   1.00
H2       0.38401    0.94581    0.18847   1.00
H2       0.37261    0.98022    0.21097   1.00
H2       0.31953    0.93914    0.15696   1.00
H2       0.24093    0.91241    0.16885   1.00
H2       0.27869    0.98665    0.15370   1.00
H2       0.20858    1.13737    0.17515   1.00
H2       0.19154    1.09068    0.19777   1.00
H2       0.26654    1.17111    0.19558   1.00
H2       0.35489    1.11908    0.15665   1.00
H2       0.30272    1.15440    0.15180   1.00
H2       0.36259    1.18742    0.17174   1.00
H2       0.37128    1.05113    0.23640   1.00
H2       0.40114    1.13720    0.24303   1.00
H2       0.31346    1.07972    0.24143   1.00
H2       0.47039    1.19014    0.21306   1.00
H2       0.45604    1.10925    0.20548   1.00
H2       0.44195    1.16112    0.18838   1.00
C4       1.02552    0.52919    0.61736   1.00
C4       0.97496    0.50496    0.63299   1.00
C3       1.02957    0.48641    0.60234   1.00
C3       0.92739    0.43486    0.63627   1.00
C3       1.07574    0.59990    0.61676   1.00
C3       0.97110    0.55299    0.64614   1.00
C2       1.13135    0.58153    0.58688   1.00
C2       0.87526    0.45995    0.66521   1.00
C3       1.08122    0.51173    0.58759   1.00
C3       0.87848    0.41298    0.65181   1.00
C3       1.12668    0.62467    0.60151   1.00
C3       0.92336    0.52970    0.66225   1.00
H1       0.99496    0.43563    0.60164   1.00
H1       0.92714    0.39762    0.62755   1.00
C5       1.07458    0.64544    0.63132   1.00
C5       1.01521    0.62392    0.64329   1.00
H1       1.08187    0.47828    0.57720   1.00
H1       0.84500    0.36168    0.65336   1.00
H1       1.16122    0.67582    0.60092   1.00
H1       0.92413    0.56442    0.67232   1.00
O3       1.12914    0.71082    0.63280   1.00
O3       1.00367    0.67121    0.65307   1.00
Si1      1.19029    0.72770    0.64894   1.00
Si1      0.95088    0.69206    0.64294   1.00
C6       1.24649    0.81190    0.64081   1.00
C6       1.15836    0.72656    0.67341   1.00
C6       1.22690    0.67533    0.64584   1.00
C6       0.90859    0.65073    0.62030   1.00
C6       0.89053    0.67319    0.66223   1.00
C6       0.99597    0.78110    0.63942   1.00
C6       1.25788    0.82216    0.61732   1.00
H2       1.21881    0.83810    0.64497   1.00
C6       1.31926    0.85513    0.65045   1.00
H2       1.11798    0.73819    0.67021   1.00
C6       1.12343    0.65769    0.68539   1.00
C6       1.20625    0.78143    0.68915   1.00
H2       1.23536    0.67773    0.62947   1.00
C6       1.29816    0.69993    0.65591   1.00
C6       1.18428    0.59758    0.65150   1.00
C6       0.95312    0.65544    0.60157   1.00
C6       0.84851    0.57516    0.62114   1.00
H2       0.88356    0.67938    0.61596   1.00
H2       0.86270    0.61760    0.66287   1.00
C6       0.91972    0.69726    0.68410   1.00
C6       0.83603    0.69536    0.65879   1.00
H2       0.99516    0.80150    0.65436   1.00
C6       1.07303    0.81372    0.63399   1.00
C6       0.96582    0.81270    0.62436   1.00
H2       1.20966    0.80311    0.60921   1.00
H2       1.28350    0.79568    0.61143   1.00
H2       1.28901    0.87618    0.61346   1.00
H2       1.33381    0.90901    0.65085   1.00
H2       1.32202    0.83982    0.66589   1.00
H2       1.35852    0.85204    0.64166   1.00
H2       1.09355    0.66005    0.69807   1.00
H2       1.08809    0.61513    0.67596   1.00
H2       1.16120    0.64620    0.69163   1.00
H2       1.22590    0.83300    0.68331   1.00
H2       1.17885    0.77849    0.70313   1.00
H2       1.24908    0.77438    0.69324   1.00
H2       1.29717    0.71025    0.67205   1.00
H2       1.31458    0.66216    0.65441   1.00
H2       1.33780    0.74557    0.64858   1.00
H2       1.18960    0.58848    0.66747   1.00
H2       1.13022    0.57513    0.64852   1.00
H2       1.20196    0.56854    0.64264   1.00
H2       0.96898    0.61731    0.60225   1.00
H2       0.92415    0.64644    0.58752   1.00
H2       0.99860    0.70545    0.60021   1.00
H2       0.82163    0.56022    0.60660   1.00
H2       0.86609    0.53932    0.62427   1.00
H2       0.81047    0.56793    0.63250   1.00
H2       0.87899    0.67341    0.69537   1.00
H2       0.95758    0.68256    0.68791   1.00
H2       0.94348    0.75242    0.68582   1.00
H2       0.81132    0.67881    0.64403   1.00
H2       0.79584    0.67231    0.67026   1.00
H2       0.85861    0.75062    0.65990   1.00
H2       1.08087    0.79521    0.61954   1.00
H2       1.09806    0.86928    0.63325   1.00
H2       1.09903    0.80142    0.64564   1.00
H2       0.99227    0.86824    0.62585   1.00
H2       0.97099    0.80087    0.60862   1.00
H2       0.91203    0.79432    0.62733   1.00
C4       0.50369    -0.02551   0.61736   1.00
C4       0.53002    0.02505    0.63298   1.00
C3       0.45718    -0.02931   0.60227   1.00
C3       0.50778    0.07289    0.63619   1.00
C3       0.52384    -0.07599   0.61683   1.00
C3       0.58160    0.02864    0.64622   1.00
C2       0.45018    -0.13136   0.58688   1.00
C2       0.58467    0.12475    0.66521   1.00
C3       0.43084    -0.08097   0.58751   1.00
C3       0.53479    0.12179    0.65173   1.00
C3       0.49767    -0.12693   0.60159   1.00
C3       0.60603    0.07639    0.66233   1.00
H1       0.44127    0.00548    0.60151   1.00
H1       0.47102    0.07335    0.62740   1.00
C5       0.57022    -0.07508   0.63147   1.00
C5       0.60814    -0.01575   0.64345   1.00
H1       0.39698    -0.08144   0.57707   1.00
H1       0.51719    0.15547    0.65322   1.00
H1       0.51405    -0.16167   0.60106   1.00
H1       0.63974    0.07543    0.67245   1.00
O3       0.58068    -0.12986   0.63302   1.00
O3       0.66673    -0.00450   0.65332   1.00
Si1      0.53596    -0.19092   0.64914   1.00
Si1      0.74060    0.04802    0.64327   1.00
C6       0.56367    -0.24744   0.64110   1.00
C6       0.56651    -0.15905   0.67363   1.00
C6       0.44708    -0.22713   0.64592   1.00
C6       0.74211    0.09040    0.62059   1.00
C6       0.78204    0.10831    0.66257   1.00
C6       0.78422    0.00255    0.63986   1.00
C6       0.56282    -0.25887   0.61762   1.00
H2       0.61751    -0.21998   0.64533   1.00
C6       0.53367    -0.32024   0.65076   1.00
H2       0.61865    -0.11886   0.67048   1.00
C6       0.53270    -0.12383   0.68552   1.00
C6       0.57298    -0.20711   0.68943   1.00
H2       0.44121    -0.23559   0.62955   1.00
C6       0.40001    -0.29832   0.65597   1.00
C6       0.41221    -0.18419   0.65148   1.00
C6       0.70240    0.04596    0.60184   1.00
C6       0.72699    0.15074    0.62135   1.00
H2       0.79583    0.11520    0.61632   1.00
H2       0.75450    0.13637    0.66314   1.00
C6       0.77646    0.07908    0.68446   1.00
C6       0.85883    0.16252    0.65921   1.00
H2       0.80515    0.00324    0.65484   1.00
C6       0.73954    -0.07449   0.63442   1.00
C6       0.84617    0.03242    0.62488   1.00
H2       0.59229    -0.21068   0.60952   1.00
H2       0.51080    -0.28426   0.61167   1.00
H2       0.58552    -0.29021   0.61383   1.00
H2       0.57280    -0.33506   0.65124   1.00
H2       0.51543    -0.32290   0.66617   1.00
H2       0.49136    -0.35937   0.64193   1.00
H2       0.56485    -0.09404   0.69823   1.00
H2       0.52582    -0.08836   0.67605   1.00
H2       0.48328    -0.16142   0.69172   1.00
H2       0.60478    -0.22700   0.68366   1.00
H2       0.59733    -0.17977   0.70342   1.00
H2       0.52294    -0.24978   0.69346   1.00
H2       0.41107    -0.29738   0.67213   1.00
H2       0.34589    -0.31448   0.65440   1.00
H2       0.40587    -0.33811   0.64869   1.00
H2       0.39758    -0.18943   0.66744   1.00
H2       0.44407    -0.13016   0.64851   1.00
H2       0.36565    -0.20165   0.64256   1.00
H2       0.64848    0.03036    0.60244   1.00
H2       0.72267    0.07489    0.58780   1.00
H2       0.70669    0.00033    0.60053   1.00
H2       0.73925    0.17762    0.60681   1.00
H2       0.67357    0.13341    0.62441   1.00
H2       0.75777    0.18872    0.63273   1.00
H2       0.79336    0.11983    0.69573   1.00
H2       0.72378    0.04141    0.68822   1.00
H2       0.80761    0.05508    0.68625   1.00
H2       0.86732    0.18725    0.64445   1.00
H2       0.87600    0.20274    0.67067   1.00
H2       0.89128    0.13970    0.66040   1.00
H2       0.71342    -0.08220   0.61994   1.00
H2       0.76985    -0.09976   0.63376   1.00
H2       0.70104    -0.10033   0.64603   1.00
H2       0.87500    0.00573    0.62644   1.00
H2       0.82940    0.02732    0.60911   1.00
H2       0.88174    0.08616    0.62786   1.00
C4       0.47079    0.49631    0.61736   1.00
C4       0.49502    0.46998    0.63298   1.00
C3       0.51350    0.54283    0.60227   1.00
C3       0.56510    0.49223    0.63619   1.00
C3       0.40015    0.47614    0.61683   1.00
C3       0.44703    0.41839    0.64622   1.00
C2       0.41846    0.54982    0.58688   1.00
C2       0.54006    0.41533    0.66521   1.00
C3       0.48818    0.56917    0.58751   1.00
C3       0.58699    0.46523    0.65174   1.00
C3       0.37538    0.50231    0.60159   1.00
C3       0.47035    0.39396    0.66232   1.00
H1       0.56422    0.55876    0.60151   1.00
H1       0.60232    0.52901    0.62741   1.00
C5       0.35468    0.42975    0.63147   1.00
C5       0.37610    0.39184    0.64344   1.00
H1       0.52158    0.60304    0.57708   1.00
H1       0.63827    0.48283    0.65323   1.00
H1       0.32427    0.48593    0.60105   1.00
H1       0.43567    0.36024    0.67245   1.00
O3       0.28944    0.41928    0.63301   1.00
O3       0.32876    0.33324    0.65331   1.00
Si1      0.27308    0.46398    0.64913   1.00
Si1      0.30743    0.25938    0.64326   1.00
C6       0.18884    0.43626    0.64109   1.00
C6       0.27438    0.43342    0.67362   1.00
C6       0.32574    0.55287    0.64592   1.00
C6       0.34832    0.25789    0.62058   1.00
C6       0.32629    0.21794    0.66256   1.00
C6       0.21834    0.21574    0.63985   1.00
C6       0.17828    0.43712    0.61761   1.00
H2       0.16248    0.38242    0.64532   1.00
C6       0.14602    0.46624    0.65075   1.00
H2       0.26246    0.38129    0.67047   1.00
C6       0.34342    0.46724    0.68551   1.00
C6       0.21985    0.42694    0.68942   1.00
H2       0.32315    0.55874    0.62954   1.00
C6       0.30160    0.59992    0.65597   1.00
C6       0.40355    0.58775    0.65148   1.00
C6       0.34358    0.29760    0.60183   1.00
C6       0.42379    0.27303    0.62134   1.00
H2       0.31941    0.20417    0.61631   1.00
H2       0.38188    0.24549    0.66313   1.00
C6       0.30262    0.22350    0.68444   1.00
C6       0.30372    0.14115    0.65919   1.00
H2       0.19809    0.19480    0.65482   1.00
C6       0.18597    0.26041    0.63441   1.00
C6       0.18628    0.15380    0.62486   1.00
H2       0.19701    0.40766    0.60951   1.00
H2       0.20490    0.48914    0.61166   1.00
H2       0.12424    0.41441    0.61382   1.00
H2       0.09209    0.42710    0.65123   1.00
H2       0.16160    0.48447    0.66616   1.00
H2       0.14921    0.50856    0.64192   1.00
H2       0.34106    0.43509    0.69823   1.00
H2       0.38577    0.47413    0.67605   1.00
H2       0.35523    0.51665    0.69172   1.00
H2       0.16816    0.39513    0.68364   1.00
H2       0.22284    0.40258    0.70341   1.00
H2       0.22720    0.47696    0.69346   1.00
H2       0.29147    0.58885    0.67213   1.00
H2       0.33955    0.65404    0.65440   1.00
H2       0.25595    0.59406    0.64868   1.00
H2       0.41292    0.60236    0.66744   1.00
H2       0.42573    0.55590    0.64851   1.00
H2       0.43264    0.63431    0.64256   1.00
H2       0.38191    0.35153    0.60243   1.00
H2       0.35226    0.27734    0.58779   1.00
H2       0.29367    0.29331    0.60052   1.00
H2       0.43842    0.26078    0.60680   1.00
H2       0.45986    0.32644    0.62440   1.00
H2       0.43098    0.24224    0.63272   1.00
H2       0.32647    0.20660    0.69571   1.00
H2       0.31762    0.27618    0.68821   1.00
H2       0.24746    0.19234    0.68623   1.00
H2       0.31997    0.13267    0.64443   1.00
H2       0.32677    0.12398    0.67066   1.00
H2       0.24845    0.10869    0.66038   1.00
H2       0.20438    0.28654    0.61992   1.00
H2       0.13039    0.23009    0.63374   1.00
H2       0.19862    0.29891    0.64602   1.00
H2       0.13077    0.12497    0.62641   1.00
H2       0.19796    0.17058    0.60909   1.00
H2       0.20446    0.11824    0.62783   1.00
C4       0.46845    -0.03194   0.11927   1.00
C4       0.49331    0.02035    0.13438   1.00
C3       0.49718    -0.07411   0.11558   1.00
C3       0.55305    0.03980    0.14602   1.00
C3       0.41239    -0.04240   0.10685   1.00
C3       0.45678    0.05542    0.13826   1.00
C2       0.41739    -0.13427   0.08774   1.00
C2       0.54113    0.12766    0.16435   1.00
C3       0.47265    -0.12361   0.10019   1.00
C3       0.57598    0.09153    0.16073   1.00
C3       0.38757    -0.09347   0.09164   1.00
C3       0.48235    0.10937    0.15252   1.00
H1       0.53663    -0.07026   0.12402   1.00
H1       0.58190    0.01726    0.14407   1.00
C5       0.38130    -0.00199   0.10975   1.00
C5       0.39531    0.03699    0.12777   1.00
H1       0.49578    -0.15227   0.09813   1.00
H1       0.61917    0.10303    0.16881   1.00
H1       0.34612    -0.10168   0.08323   1.00
H1       0.45804    0.13686    0.15419   1.00
O3       0.33518    -0.00427   0.09569   1.00
O3       0.35240    0.06042    0.13402   1.00
Si1      0.36123    0.05111    0.07719   1.00
Si1      0.29688    0.01912    0.15186   1.00
C6       0.28397    0.01374    0.06346   1.00
C6       0.37974    0.13020    0.08765   1.00
C6       0.42767    0.05270    0.06275   1.00
C6       0.29636    -0.05220   0.16298   1.00
C6       0.31664    0.08187    0.17043   1.00
C6       0.21571    -0.00461   0.14199   1.00
C6       0.24881    -0.06524   0.06006   1.00
H2       0.25022    0.02093    0.07372   1.00
C6       0.27864    0.04385    0.04254   1.00
H2       0.34743    0.11446    0.10113   1.00
C6       0.45383    0.17929    0.09542   1.00
C6       0.35963    0.17664    0.07536   1.00
H2       0.40843    -0.00149   0.05996   1.00
C6       0.44207    0.08731    0.04135   1.00
C6       0.50042    0.08173    0.07244   1.00
C6       0.28608    -0.11186   0.14875   1.00
C6       0.35398    -0.04087   0.17831   1.00
H2       0.25066    -0.07348   0.17241   1.00
H2       0.36554    0.09154    0.17647   1.00
C6       0.32938    0.15261    0.16260   1.00
C6       0.26724    0.06245    0.18896   1.00
H2       0.21198    0.04143    0.14348   1.00
C6       0.20491    -0.02246   0.11896   1.00
C6       0.15169    -0.06246   0.15308   1.00
H2       0.24003    -0.09254   0.07441   1.00
H2       0.27993    -0.07826   0.05043   1.00
H2       0.19896    -0.08506   0.05285   1.00
H2       0.22757    0.03693    0.04067   1.00
H2       0.31491    0.09800    0.04105   1.00
H2       0.28672    0.01815    0.02971   1.00
H2       0.45500    0.21876    0.10525   1.00
H2       0.47357    0.15267    0.10441   1.00
H2       0.48868    0.20493    0.08282   1.00
H2       0.30539    0.14977    0.07166   1.00
H2       0.36901    0.22152    0.08414   1.00
H2       0.38911    0.19470    0.06134   1.00
H2       0.45046    0.13908    0.04239   1.00
H2       0.48695    0.09016    0.03412   1.00
H2       0.40025    0.05804    0.03093   1.00
H2       0.53177    0.13682    0.07046   1.00
H2       0.49923    0.07161    0.08853   1.00
H2       0.52748    0.05869    0.06518   1.00
H2       0.33376    -0.10178   0.14172   1.00
H2       0.26698    -0.15918   0.15738   1.00
H2       0.24925    -0.12158   0.13676   1.00
H2       0.34142    -0.08862   0.18595   1.00
H2       0.40292    -0.02289   0.17087   1.00
H2       0.36050    -0.00475   0.19024   1.00
H2       0.35242    0.19112    0.17454   1.00
H2       0.36471    0.17073    0.14978   1.00
H2       0.28222    0.15056    0.15787   1.00
H2       0.25698    0.01439    0.19583   1.00
H2       0.28987    0.10150    0.20077   1.00
H2       0.21876    0.05827    0.18460   1.00
H2       0.21003    -0.06665   0.11532   1.00
H2       0.15481    -0.03265   0.11381   1.00
H2       0.24257    0.02038    0.11015   1.00
H2       0.10492    -0.06514   0.14750   1.00
H2       0.14706    -0.11233   0.15062   1.00
H2       0.15356    -0.05350   0.16937   1.00
C4       1.02899    0.49154    0.11832   1.00
C4       0.97826    0.46546    0.13389   1.00
C3       1.08020    0.47322    0.11625   1.00
C3       0.97741    0.42344    0.15001   1.00
C3       1.02970    0.53946    0.10411   1.00
C3       0.92500    0.48180    0.13348   1.00
C2       1.13186    0.54913    0.08702   1.00
C2       0.87475    0.41602    0.16507   1.00
C3       1.13046    0.50148    0.10111   1.00
C3       0.92674    0.39885    0.16507   1.00
C3       1.08007    0.56641    0.08871   1.00
C3       0.87613    0.45891    0.14927   1.00
H1       1.08234    0.43864    0.12565   1.00
H1       1.01381    0.40980    0.15136   1.00
C5       0.97992    0.55992    0.10532   1.00
C5       0.92108    0.52133    0.11743   1.00
H1       1.16650    0.48668    0.10045   1.00
H1       0.92836    0.36817    0.17626   1.00
H1       1.07880    0.59928    0.07828   1.00
H1       0.84094    0.47463    0.14946   1.00
O3       0.98740    0.61414    0.09386   1.00
O3       0.86330    0.52637    0.11451   1.00
Si1      1.02516    0.69074    0.10357   1.00
Si1      0.80008    0.46714    0.10152   1.00
C6       1.02911    0.73490    0.08109   1.00
C6       0.96849    0.69409    0.12125   1.00
C6       1.10749    0.71653    0.11304   1.00
C6       0.80747    0.39757    0.09252   1.00
C6       0.73124    0.43738    0.11847   1.00
C6       0.78401    0.50767    0.08120   1.00
C6       1.05574    0.71498    0.06179   1.00
H2       0.97535    0.71704    0.07809   1.00
C6       1.06540    0.81484    0.08071   1.00
H2       0.91914    0.65448    0.11558   1.00
C6       0.97212    0.67477    0.14382   1.00
C6       0.96334    0.76040    0.12242   1.00
H2       1.13025    0.70285    0.10059   1.00
C6       1.15597    0.79465    0.11685   1.00
C6       1.11558    0.68161    0.13262   1.00
C6       0.86954    0.41316    0.07861   1.00
C6       0.79963    0.34088    0.10771   1.00
H2       0.76272    0.37111    0.08277   1.00
H2       0.74310    0.41034    0.13001   1.00
C6       0.72366    0.49331    0.13024   1.00
C6       0.65886    0.38543    0.11012   1.00
H2       0.75347    0.52756    0.08796   1.00
C6       0.84728    0.57118    0.07197   1.00
C6       0.74164    0.46281    0.06278   1.00
H2       1.02598    0.66029    0.05876   1.00
H2       1.10912    0.72872    0.06352   1.00
H2       1.05168    0.74069    0.04827   1.00
H2       1.03957    0.83130    0.07002   1.00
H2       1.06547    0.83661    0.09541   1.00
H2       1.11835    0.83826    0.07569   1.00
H2       0.92614    0.66477    0.15208   1.00
H2       0.97545    0.62860    0.14502   1.00
H2       1.01568    0.71603    0.15166   1.00
H2       0.95066    0.77313    0.10770   1.00
H2       0.92286    0.75401    0.13281   1.00
H2       1.01100    0.80359    0.12783   1.00
H2       1.13178    0.81539    0.12661   1.00
H2       1.20392    0.80531    0.12401   1.00
H2       1.17078    0.82298    0.10269   1.00
H2       1.11316    0.70672    0.14648   1.00
H2       1.07730    0.62822    0.13398   1.00
H2       1.16516    0.68425    0.13253   1.00
H2       0.91509    0.42612    0.08744   1.00
H2       0.85847    0.36846    0.06948   1.00
H2       0.88164    0.45473    0.06809   1.00
H2       0.79581    0.29710    0.09951   1.00
H2       0.84297    0.35873    0.11792   1.00
H2       0.75343    0.32135    0.11683   1.00
H2       0.68733    0.47035    0.14272   1.00
H2       0.77207    0.53130    0.13695   1.00
H2       0.70553    0.51978    0.12045   1.00
H2       0.65881    0.34320    0.10213   1.00
H2       0.62232    0.36324    0.12259   1.00
H2       0.63996    0.41006    0.09983   1.00
H2       0.88350    0.55832    0.06532   1.00
H2       0.83253    0.59560    0.06030   1.00
H2       0.87367    0.60894    0.08373   1.00
H2       0.72635    0.49140    0.05279   1.00
H2       0.77112    0.44624    0.05371   1.00
H2       0.69492    0.41764    0.06768   1.00
C4       0.50868    0.53710    0.11815   1.00
C4       0.53485    0.51262    0.13375   1.00
C3       0.53356    0.60736    0.11432   1.00
C3       0.58407    0.55563    0.14823   1.00
C3       0.45386    0.48909    0.10578   1.00
C3       0.51102    0.44127    0.13508   1.00
C2       0.45076    0.58246    0.08697   1.00
C2       0.58409    0.45902    0.16512   1.00
C3       0.50518    0.62946    0.09924   1.00
C3       0.60851    0.52968    0.16337   1.00
C3       0.42678    0.51243    0.09040   1.00
C3       0.53413    0.41586    0.15098   1.00
H1       0.57318    0.64454    0.12233   1.00
H1       0.60330    0.60703    0.14828   1.00
C5       0.42663    0.41808    0.10881   1.00
C5       0.46384    0.39555    0.12067   1.00
H1       0.52494    0.68093    0.09727   1.00
H1       0.64454    0.56326    0.17332   1.00
H1       0.38874    0.47743    0.08128   1.00
H1       0.51334    0.36430    0.15250   1.00
O3       0.36690    0.37223    0.09927   1.00
O3       0.45052    0.32910    0.11920   1.00
Si1      0.29412    0.34418    0.11097   1.00
Si1      0.50087    0.31322    0.10543   1.00
C6       0.24099    0.30048    0.09017   1.00
C6       0.28930    0.28688    0.12988   1.00
C6       0.28013    0.41002    0.11957   1.00
C6       0.57203    0.38257    0.09374   1.00
C6       0.52913    0.27351    0.12265   1.00
C6       0.44980    0.25247    0.08708   1.00
C6       0.25903    0.34095    0.06967   1.00
H2       0.25221    0.25941    0.08768   1.00
C6       0.16129    0.26464    0.09199   1.00
H2       0.32306    0.26975    0.12383   1.00
C6       0.31726    0.31561    0.15152   1.00
C6       0.21934    0.22046    0.13361   1.00
H2       0.29332    0.44277    0.10621   1.00
C6       0.20518    0.39002    0.12522   1.00
C6       0.32409    0.45696    0.13757   1.00
C6       0.55881    0.42922    0.07917   1.00
C6       0.63551    0.43150    0.10691   1.00
H2       0.59123    0.35686    0.08403   1.00
H2       0.56270    0.31461    0.13287   1.00
C6       0.47318    0.21745    0.13659   1.00
C6       0.57219    0.24270    0.11397   1.00
H2       0.42731    0.20399    0.09520   1.00
C6       0.38785    0.25749    0.07891   1.00
C6       0.48587    0.24358    0.06801   1.00
H2       0.31189    0.35924    0.06526   1.00
H2       0.25168    0.38502    0.07077   1.00
H2       0.22718    0.30867    0.05727   1.00
H2       0.13741    0.21887    0.08252   1.00
H2       0.14312    0.24916    0.10740   1.00
H2       0.14157    0.29721    0.08673   1.00
H2       0.32478    0.27899    0.16034   1.00
H2       0.36659    0.36221    0.15092   1.00
H2       0.28174    0.32578    0.15991   1.00
H2       0.19969    0.19073    0.11972   1.00
H2       0.22441    0.18695    0.14456   1.00
H2       0.18151    0.23242    0.13957   1.00
H2       0.18354    0.34838    0.13622   1.00
H2       0.20215    0.43291    0.13172   1.00
H2       0.17270    0.37500    0.11188   1.00
H2       0.30183    0.43550    0.15233   1.00
H2       0.37595    0.46644    0.13775   1.00
H2       0.32737    0.50673    0.13652   1.00
H2       0.55360    0.46798    0.08746   1.00
H2       0.60152    0.45607    0.06867   1.00
H2       0.51324    0.40023    0.06999   1.00
H2       0.67844    0.46541    0.09721   1.00
H2       0.62534    0.46384    0.11680   1.00
H2       0.65329    0.40372    0.11624   1.00
H2       0.49684    0.20430    0.14893   1.00
H2       0.44133    0.23540    0.14364   1.00
H2       0.44000    0.17080    0.12823   1.00
H2       0.61402    0.27923    0.10447   1.00
H2       0.59501    0.22860    0.12632   1.00
H2       0.54069    0.19679    0.10506   1.00
H2       0.40370    0.30549    0.07105   1.00
H2       0.35665    0.21573    0.06854   1.00
H2       0.35517    0.25405    0.09144   1.00
H2       0.45075    0.19790    0.05947   1.00
H2       0.50401    0.28715    0.05775   1.00
H2       0.52919    0.23767    0.07221   1.00
C4       0.63499    0.80230    0.71415   1.00
C4       0.68729    0.82705    0.69904   1.00
C3       0.59725    0.83494    0.71912   1.00
C3       0.71128    0.89005    0.68873   1.00
C3       0.61987    0.74216    0.72521   1.00
C3       0.71758    0.78698    0.69376   1.00
C2       0.53240    0.75093    0.74560   1.00
C2       0.79431    0.87427    0.66899   1.00
C3       0.54764    0.81023    0.73449   1.00
C3       0.76287    0.91275    0.67399   1.00
C3       0.56873    0.71733    0.74039   1.00
C3       0.77150    0.81213    0.67949   1.00
H1       0.60454    0.87749    0.71169   1.00
H1       0.69230    0.92151    0.69172   1.00
C5       0.65571    0.70705    0.72098   1.00
C5       0.69442    0.72235    0.70286   1.00
H1       0.52232    0.83625    0.73752   1.00
H1       0.77777    0.95845    0.66690   1.00
H1       0.55712    0.67308    0.74781   1.00
H1       0.79560    0.78489    0.67683   1.00
O3       0.64923    0.65614    0.73383   1.00
O3       0.71309    0.67721    0.69520   1.00
Si1      0.70396    0.67416    0.75221   1.00
Si1      0.66917    0.62724    0.67651   1.00
C6       0.66131    0.59404    0.76438   1.00
C6       0.78116    0.68892    0.74123   1.00
C6       0.71106    0.73968    0.76833   1.00
C6       0.60135    0.63543    0.66635   1.00
C6       0.73106    0.64658    0.65768   1.00
C6       0.63924    0.54277    0.68455   1.00
C6       0.58288    0.56359    0.76790   1.00
H2       0.66539    0.56073    0.75318   1.00
C6       0.68916    0.58110    0.78472   1.00
H2       0.76357    0.65983    0.72716   1.00
C6       0.83461    0.76337    0.73477   1.00
C6       0.82344    0.66120    0.75236   1.00
H2       0.65767    0.72375    0.77132   1.00
C6       0.74492    0.74672    0.78959   1.00
C6       0.74530    0.81491    0.76018   1.00
C6       0.54333    0.62666    0.68105   1.00
C6       0.61749    0.69778    0.65241   1.00
H2       0.57721    0.59198    0.65603   1.00
H2       0.74467    0.69789    0.65281   1.00
C6       0.79945    0.65189    0.66489   1.00
C6       0.70853    0.60123    0.63817   1.00
H2       0.68283    0.53525    0.68236   1.00
C6       0.62087    0.52781    0.70747   1.00
C6       0.57868    0.48386    0.67258   1.00
H2       0.55635    0.56014    0.75373   1.00
H2       0.57303    0.59482    0.77848   1.00
H2       0.55948    0.51190    0.77405   1.00
H2       0.67805    0.52825    0.78534   1.00
H2       0.74394    0.61372    0.78643   1.00
H2       0.66515    0.58877    0.79805   1.00
H2       0.87251    0.76342    0.72448   1.00
H2       0.81113    0.78822    0.72667   1.00
H2       0.86188    0.79444    0.74790   1.00
H2       0.79300    0.60637    0.75498   1.00
H2       0.86720    0.66906    0.74325   1.00
H2       0.84299    0.68702    0.76686   1.00
H2       0.79503    0.75119    0.78808   1.00
H2       0.75145    0.79141    0.79792   1.00
H2       0.71316    0.70346    0.79927   1.00
H2       0.80053    0.84223    0.76224   1.00
H2       0.73584    0.81824    0.74424   1.00
H2       0.72558    0.84333    0.76843   1.00
H2       0.55699    0.67367    0.68917   1.00
H2       0.49669    0.61290    0.67257   1.00
H2       0.53061    0.58651    0.69217   1.00
H2       0.57100    0.69063    0.64509   1.00
H2       0.63879    0.74532    0.66087   1.00
H2       0.65270    0.70415    0.64021   1.00
H2       0.83840    0.67520    0.65308   1.00
H2       0.81960    0.68405    0.67836   1.00
H2       0.79327    0.60202    0.66841   1.00
H2       0.66195    0.59631    0.63169   1.00
H2       0.74796    0.62405    0.62647   1.00
H2       0.70021    0.55026    0.64131   1.00
H2       0.57912    0.53612    0.71181   1.00
H2       0.60665    0.47551    0.71143   1.00
H2       0.66484    0.56118    0.71667   1.00
H2       0.57191    0.43425    0.67696   1.00
H2       0.53069    0.48280    0.67557   1.00
H2       0.58767    0.48875    0.65627   1.00
C4       0.16729    0.36210    0.71499   1.00
C4       0.13905    0.31010    0.69980   1.00
C3       0.21282    0.36516    0.73031   1.00
C3       0.14853    0.25267    0.69953   1.00
C3       0.14851    0.41361    0.71520   1.00
C3       0.09912    0.31528    0.68389   1.00
C2       0.21953    0.46699    0.74576   1.00
C2       0.07894    0.20630    0.66883   1.00
C3       0.23794    0.41591    0.74534   1.00
C3       0.11986    0.20251    0.68436   1.00
C3       0.17542    0.46511    0.73027   1.00
C3       0.06828    0.26271    0.66926   1.00
H1       0.22925    0.33075    0.73095   1.00
H1       0.17619    0.24536    0.71040   1.00
C5       0.10322    0.41352    0.70031   1.00
C5       0.08964    0.37250    0.68275   1.00
H1       0.27031    0.41525    0.75612   1.00
H1       0.12892    0.16242    0.68483   1.00
H1       0.16299    0.50281    0.72990   1.00
H1       0.03630    0.26497    0.65873   1.00
O3       0.07642    0.45600    0.70252   1.00
O3       0.06309    0.38536    0.66553   1.00
Si1      0.00262    0.42791    0.71359   1.00
Si1      0.11444    0.42704    0.64684   1.00
C6       0.00453    0.50671    0.71483   1.00
C6       -0.06053   0.37151    0.69658   1.00
C6       -0.00110   0.39445    0.73805   1.00
C6       0.20143    0.45123    0.64922   1.00
C6       0.07861    0.37096    0.62626   1.00
C6       0.10633    0.49922    0.64210   1.00
C6       0.07245    0.56860    0.72292   1.00
H2       0.00193    0.51780    0.69884   1.00
C6       -0.05417   0.51279    0.72552   1.00
H2       -0.03521   0.38959    0.68196   1.00
C6       -0.08280   0.29410    0.69756   1.00
C6       -0.12862   0.37322    0.69492   1.00
H2       0.04613    0.43403    0.74494   1.00
C6       -0.06018   0.38579    0.75236   1.00
C6       -0.00072   0.32556    0.74041   1.00
C6       0.24192    0.49626    0.66780   1.00
C6       0.22340    0.39604    0.64689   1.00
H2       0.22401    0.48384    0.63598   1.00
H2       0.08835    0.32951    0.62977   1.00
C6       -0.00062   0.33639    0.62383   1.00
C6       0.10994    0.39809    0.60481   1.00
H2       0.06018    0.47956    0.63292   1.00
C6       0.09271    0.53240    0.66092   1.00
C6       0.16397    0.55931    0.62965   1.00
H2       0.11647    0.57569    0.71416   1.00
H2       0.08117    0.56142    0.73881   1.00
H2       0.07138    0.61621    0.72175   1.00
H2       -0.06196   0.55118    0.71785   1.00
H2       -0.10262   0.46527    0.72542   1.00
H2       -0.04217   0.52910    0.74131   1.00
H2       -0.11043   0.26770    0.68381   1.00
H2       -0.03931   0.28618    0.69862   1.00
H2       -0.11652   0.26915    0.71043   1.00
H2       -0.11907   0.42421    0.69120   1.00
H2       -0.16111   0.33975    0.68279   1.00
H2       -0.15768   0.35638    0.70903   1.00
H2       -0.10979   0.35584    0.74505   1.00
H2       -0.06129   0.36041    0.76660   1.00
H2       -0.05367   0.43488    0.75681   1.00
H2       -0.05195   0.28127    0.73956   1.00
H2       0.02979    0.31846    0.72907   1.00
H2       0.02027    0.32380    0.75519   1.00
H2       0.23434    0.46559    0.68131   1.00
H2       0.29665    0.52376    0.66462   1.00
H2       0.22764    0.53437    0.67140   1.00
H2       0.27892    0.42016    0.64587   1.00
H2       0.20752    0.36125    0.65973   1.00
H2       0.20317    0.36601    0.63309   1.00
H2       -0.01926   0.29434    0.61296   1.00
H2       -0.02682   0.31472    0.63817   1.00
H2       -0.01607   0.37221    0.61844   1.00
H2       0.16535    0.42143    0.60491   1.00
H2       0.09050    0.35616    0.59387   1.00
H2       0.09682    0.43546    0.59919   1.00
H2       0.13458    0.55197    0.67179   1.00
H2       0.08435    0.57419    0.65655   1.00
H2       0.04689    0.49481    0.66866   1.00
H2       0.14819    0.59582    0.62510   1.00
H2       0.21076    0.58701    0.63853   1.00
H2       0.17595    0.54135    0.61576   1.00
C4       0.19490    0.83260    0.71493   1.00
C4       0.17108    0.86082    0.69975   1.00
C3       0.15185    0.78454    0.72965   1.00
C3       0.10320    0.84860    0.69893   1.00
C3       0.26582    0.85405    0.71576   1.00
C3       0.21715    0.90360    0.68442   1.00
C2       0.24755    0.78050    0.74574   1.00
C2       0.12725    0.92103    0.66885   1.00
C3       0.17746    0.75947    0.74471   1.00
C3       0.08168    0.87734    0.68380   1.00
C3       0.29044    0.82719    0.73084   1.00
C3       0.19522    0.93439    0.66983   1.00
H1       0.10060    0.76616    0.72982   1.00
H1       0.06750    0.81882    0.70938   1.00
C5       0.31162    0.90196    0.70149   1.00
C5       0.28497    0.91597    0.68382   1.00
H1       0.14396    0.72518    0.75505   1.00
H1       0.03183    0.86624    0.68386   1.00
H1       0.34112    0.84161    0.73091   1.00
H1       0.22994    0.96831    0.65975   1.00
O3       0.38092    0.93098    0.70436   1.00
O3       0.32598    0.94557    0.66706   1.00
Si1      0.42298    1.00383    0.71620   1.00
Si1      0.32056    0.89710    0.64801   1.00
C6       0.50147    1.00525    0.71798   1.00
C6       0.42896    1.06770    0.69963   1.00
C6       0.38966    1.00339    0.74045   1.00
C6       0.26010    0.80909    0.64940   1.00
C6       0.30060    0.93349    0.62751   1.00
C6       0.40274    0.90913    0.64390   1.00
C6       0.49746    0.93776    0.72561   1.00
H2       0.51714    1.01019    0.70212   1.00
C6       0.56374    1.06426    0.72949   1.00
H2       0.42437    1.04429    0.68481   1.00
C6       0.37151    1.08687    0.70034   1.00
C6       0.49734    1.13747    0.69889   1.00
H2       0.38320    0.95616    0.74699   1.00
C6       0.43684    1.06172    0.75547   1.00
C6       0.31866    0.99966    0.74230   1.00
C6       0.26447    0.76769    0.66775   1.00
C6       0.18256    0.78446    0.64638   1.00
H2       0.27287    0.78898    0.63611   1.00
H2       0.24836    0.92130    0.63059   1.00
C6       0.34289    1.01311    0.62589   1.00
C6       0.30017    0.90511    0.60585   1.00
H2       0.42874    0.95640    0.63520   1.00
C6       0.44778    0.92241    0.66313   1.00
C6       0.40928    0.85436    0.63113   1.00
H2       0.46275    0.89412    0.71632   1.00
H2       0.47981    0.92676    0.74132   1.00
H2       0.54727    0.94111    0.72480   1.00
H2       0.61143    1.07479    0.72221   1.00
H2       0.56251    1.11162    0.72969   1.00
H2       0.56690    1.05097    0.74522   1.00
H2       0.37309    1.11545    0.68678   1.00
H2       0.32085    1.04199    0.70077   1.00
H2       0.37747    1.11874    0.71348   1.00
H2       0.54052    1.13042    0.69542   1.00
H2       0.49624    1.17051    0.68696   1.00
H2       0.50689    1.16481    0.71326   1.00
H2       0.45551    1.11186    0.74860   1.00
H2       0.41038    1.06012    0.76953   1.00
H2       0.48013    1.05677    0.76018   1.00
H2       0.32351    1.05009    0.74181   1.00
H2       0.28292    0.96947    0.73051   1.00
H2       0.29469    0.97649    0.75678   1.00
H2       0.23900    0.77254    0.68113   1.00
H2       0.23949    0.71339    0.66405   1.00
H2       0.31692    0.78356    0.67182   1.00
H2       0.15312    0.72896    0.64480   1.00
H2       0.16105    0.79768    0.65917   1.00
H2       0.17319    0.80532    0.63264   1.00
H2       0.31937    1.03148    0.61497   1.00
H2       0.34469    1.03728    0.64040   1.00
H2       0.39516    1.03109    0.62096   1.00
H2       0.26992    0.84957    0.60539   1.00
H2       0.27756    0.92432    0.59488   1.00
H2       0.35178    0.92080    0.60068   1.00
H2       0.42566    0.87931    0.67357   1.00
H2       0.49911    0.93330    0.65918   1.00
H2       0.45322    0.96665    0.67120   1.00
H2       0.46248    0.87262    0.62706   1.00
H2       0.39088    0.80683    0.63958   1.00
H2       0.38082    0.84289    0.61696   1.00
