data_IRMOF10_interpen_symm_ligand2lp_label_k.

_audit_creation_method             'generated by an auxiliary program of Tobunporous'

_symmetry_space_group_name_H-M     'P 1'
_symmetry_Int_Tables_number        1
_symmetry_cell_setting             triclinic

_cell_length_a                    22.6523
_cell_length_b                    22.6523
_cell_length_c                    65.9502
_cell_angle_alpha                 90.0000
_cell_angle_beta                  90.0000
_cell_angle_gamma                 120.0000

loop_
_atom_site_label
_atom_site_fract_x
_atom_site_fract_y
_atom_site_fract_z
_atom_site_occupancy
O1       0.00000    -0.00000   0.62500   1.00
Zn      0.00000    -0.00000   0.59589   1.00
Zn      0.94848    1.04288    0.63392   1.00
Zn      0.09439    0.05152    0.63392   1.00
Zn      -0.04288   0.90561    0.63392   1.00
O2       0.93860    0.02610    0.58587   1.00
O2       0.08750    0.06140    0.58587   1.00
O2       -0.02610   0.91250    0.58587   1.00
O2       0.91305    0.07161    0.61181   1.00
O2       0.00462    0.12022    0.65110   1.00
O2       0.87413    0.98074    0.65071   1.00
O2       0.15856    0.08695    0.61181   1.00
O2       0.10660    0.12587    0.65071   1.00
O2       0.11559    0.99538    0.65110   1.00
O2       -0.07161   0.84144    0.61181   1.00
O2       0.87978    0.88441    0.65110   1.00
O2       0.01926    0.89340    0.65071   1.00
C1       0.91390    0.06020    0.59358   1.00
C1       0.14630    0.08610    0.59358   1.00
C1       -0.06020   0.85370    0.59358   1.00
C1       0.06663    0.14397    0.65673   1.00
C1       0.85603    0.92267    0.65673   1.00
C1       0.07733    0.93337    0.65673   1.00
O1       -0.00000   0.00000    0.87500   1.00
Zn      -0.00000   0.00000    0.90411   1.00
Zn      1.04288    0.94848    0.86608   1.00
Zn      0.05152    0.09439    0.86608   1.00
Zn      0.90561    -0.04288   0.86608   1.00
O2       0.02610    0.93860    0.91413   1.00
O2       0.06140    0.08750    0.91413   1.00
O2       0.91250    -0.02610   0.91413   1.00
O2       0.07161    0.91305    0.88819   1.00
O2       0.12022    0.00462    0.84890   1.00
O2       0.98074    0.87413    0.84929   1.00
O2       0.08695    0.15856    0.88819   1.00
O2       0.12587    0.10660    0.84929   1.00
O2       0.99538    0.11559    0.84890   1.00
O2       0.84144    -0.07161   0.88819   1.00
O2       0.88441    0.87978    0.84890   1.00
O2       0.89340    0.01926    0.84929   1.00
C1       0.06020    0.91390    0.90642   1.00
C1       0.08610    0.14630    0.90642   1.00
C1       0.85370    -0.06020   0.90642   1.00
C1       0.14397    0.06663    0.84327   1.00
C1       0.92267    0.85603    0.84327   1.00
C1       0.93337    0.07733    0.84327   1.00
O1       0.00000    0.00000    0.37500   1.00
Zn      0.00000    0.00000    0.40411   1.00
Zn      0.05152    -0.04288   0.36608   1.00
Zn      0.90561    0.94848    0.36608   1.00
Zn      1.04288    0.09439    0.36608   1.00
O2       0.06140    -0.02610   0.41413   1.00
O2       0.91250    0.93860    0.41413   1.00
O2       0.02610    0.08750    0.41413   1.00
O2       0.08695    -0.07161   0.38819   1.00
O2       0.99538    0.87978    0.34890   1.00
O2       0.12587    0.01926    0.34929   1.00
O2       0.84144    0.91305    0.38819   1.00
O2       0.89340    0.87413    0.34929   1.00
O2       0.88441    0.00462    0.34890   1.00
O2       0.07161    0.15856    0.38819   1.00
O2       0.12022    0.11559    0.34890   1.00
O2       0.98074    0.10660    0.34929   1.00
C1       0.08610    -0.06020   0.40642   1.00
C1       0.85370    0.91390    0.40642   1.00
C1       0.06020    0.14630    0.40642   1.00
C1       0.93337    0.85603    0.34327   1.00
C1       0.14397    0.07733    0.34327   1.00
C1       0.92267    0.06663    0.34327   1.00
O1       0.00000    0.00000    0.12500   1.00
Zn      0.00000    0.00000    0.09589   1.00
Zn      -0.04288   0.05152    0.13392   1.00
Zn      0.94848    0.90561    0.13392   1.00
Zn      0.09439    1.04288    0.13392   1.00
O2       -0.02610   0.06140    0.08587   1.00
O2       0.93860    0.91250    0.08587   1.00
O2       0.08750    0.02610    0.08587   1.00
O2       -0.07161   0.08695    0.11181   1.00
O2       0.87978    0.99538    0.15110   1.00
O2       0.01926    0.12587    0.15071   1.00
O2       0.91305    0.84144    0.11181   1.00
O2       0.87413    0.89340    0.15071   1.00
O2       0.00462    0.88441    0.15110   1.00
O2       0.15856    0.07161    0.11181   1.00
O2       0.11559    0.12022    0.15110   1.00
O2       0.10660    0.98074    0.15071   1.00
C1       -0.06020   0.08610    0.09358   1.00
C1       0.91390    0.85370    0.09358   1.00
C1       0.14630    0.06020    0.09358   1.00
C1       0.85603    0.93337    0.15673   1.00
C1       0.07733    0.14397    0.15673   1.00
C1       0.06663    0.92267    0.15673   1.00
O1       0.66667    0.33333    0.95833   1.00
Zn      0.66667    0.33333    0.92922   1.00
Zn      0.61515    0.37621    0.96725   1.00
Zn      0.76106    0.38485    0.96725   1.00
Zn      -0.37621   0.23894    0.96725   1.00
O2       0.60527    0.35943    0.91920   1.00
O2       0.75417    0.39473    0.91920   1.00
O2       0.64057    0.24583    0.91920   1.00
O2       0.57972    0.40494    0.94514   1.00
O2       0.67129    0.45355    0.98443   1.00
O2       0.54080    0.31407    0.98404   1.00
O2       0.82523    0.42028    0.94514   1.00
O2       0.77327    0.45920    0.98404   1.00
O2       -0.21774   0.32871    0.98443   1.00
O2       0.59506    0.17477    0.94514   1.00
O2       0.54645    0.21774    0.98443   1.00
O2       -0.31407   0.22673    0.98404   1.00
C1       0.58057    0.39353    0.92691   1.00
C1       0.81297    0.41943    0.92691   1.00
C1       0.60647    0.18703    0.92691   1.00
C1       0.73330    0.47730    0.99006   1.00
C1       0.52270    0.25600    0.99006   1.00
C1       -0.25600   0.26670    0.99006   1.00
O1       0.66667    0.33333    0.20833   1.00
Zn      0.66667    0.33333    0.23744   1.00
Zn      0.70954    0.28182    0.19942   1.00
Zn      0.71818    0.42773    0.19942   1.00
Zn      0.57227    0.29046    0.19942   1.00
O2       0.69277    0.27193    0.24746   1.00
O2       0.72807    0.42083    0.24746   1.00
O2       0.57917    0.30723    0.24746   1.00
O2       0.73828    0.24638    0.22152   1.00
O2       0.78688    0.33796    0.18224   1.00
O2       0.64740    0.20747    0.18263   1.00
O2       0.75362    0.49189    0.22152   1.00
O2       0.79253    0.43994    0.18263   1.00
O2       0.66204    0.44893    0.18224   1.00
O2       0.50811    0.26172    0.22152   1.00
O2       0.55107    0.21312    0.18224   1.00
O2       0.56006    0.35260    0.18263   1.00
C1       0.72687    0.24723    0.23975   1.00
C1       0.75277    0.47963    0.23975   1.00
C1       0.52037    0.27313    0.23975   1.00
C1       0.81063    0.39997    0.17661   1.00
C1       0.58933    0.18937    0.17661   1.00
C1       0.60003    0.41067    0.17661   1.00
O1       0.66667    0.33333    0.70833   1.00
Zn      0.66667    0.33333    0.73744   1.00
Zn      0.71818    0.29046    0.69942   1.00
Zn      0.57227    0.28182    0.69942   1.00
Zn      0.70954    0.42773    0.69942   1.00
O2       0.72807    0.30723    0.74746   1.00
O2       0.57917    0.27193    0.74746   1.00
O2       0.69277    0.42083    0.74746   1.00
O2       0.75362    0.26172    0.72152   1.00
O2       0.66204    0.21312    0.68224   1.00
O2       0.79253    0.35260    0.68263   1.00
O2       0.50811    0.24638    0.72152   1.00
O2       0.56006    0.20747    0.68263   1.00
O2       0.55107    0.33796    0.68224   1.00
O2       0.73828    0.49189    0.72152   1.00
O2       0.78688    0.44893    0.68224   1.00
O2       0.64740    0.43994    0.68263   1.00
C1       0.75277    0.27313    0.73975   1.00
C1       0.52037    0.24723    0.73975   1.00
C1       0.72687    0.47963    0.73975   1.00
C1       0.60003    0.18937    0.67661   1.00
C1       0.81063    0.41067    0.67661   1.00
C1       0.58933    0.39997    0.67661   1.00
O1       0.66667    0.33333    0.45833   1.00
Zn      0.66667    0.33333    0.42922   1.00
Zn      -0.37621   0.38485    0.46725   1.00
Zn      0.61515    0.23894    0.46725   1.00
Zn      0.76106    0.37621    0.46725   1.00
O2       0.64057    0.39473    0.41920   1.00
O2       0.60527    0.24583    0.41920   1.00
O2       0.75417    0.35943    0.41920   1.00
O2       0.59506    0.42028    0.44514   1.00
O2       0.54645    0.32871    0.48443   1.00
O2       -0.31407   0.45920    0.48404   1.00
O2       0.57972    0.17477    0.44514   1.00
O2       0.54080    0.22673    0.48404   1.00
O2       0.67129    0.21774    0.48443   1.00
O2       0.82523    0.40494    0.44514   1.00
O2       -0.21774   0.45355    0.48443   1.00
O2       0.77327    0.31407    0.48404   1.00
C1       0.60647    0.41943    0.42691   1.00
C1       0.58057    0.18703    0.42691   1.00
C1       0.81297    0.39353    0.42691   1.00
C1       0.52270    0.26670    0.49006   1.00
C1       -0.25600   0.47730    0.49006   1.00
C1       0.73330    0.25600    0.49006   1.00
O1       0.33333    0.66667    0.29167   1.00
Zn      0.33333    0.66667    0.26256   1.00
Zn      0.28182    0.70954    0.30058   1.00
Zn      0.42773    0.71818    0.30058   1.00
Zn      0.29046    0.57227    0.30058   1.00
O2       0.27193    0.69277    0.25254   1.00
O2       0.42083    0.72807    0.25254   1.00
O2       0.30723    0.57917    0.25254   1.00
O2       0.24638    0.73828    0.27848   1.00
O2       0.33796    0.78688    0.31776   1.00
O2       0.20747    0.64740    0.31737   1.00
O2       0.49189    0.75362    0.27848   1.00
O2       0.43994    0.79253    0.31737   1.00
O2       0.44893    0.66204    0.31776   1.00
O2       0.26172    0.50811    0.27848   1.00
O2       0.21312    0.55107    0.31776   1.00
O2       0.35260    0.56006    0.31737   1.00
C1       0.24723    0.72687    0.26025   1.00
C1       0.47963    0.75277    0.26025   1.00
C1       0.27313    0.52037    0.26025   1.00
C1       0.39997    0.81063    0.32339   1.00
C1       0.18937    0.58933    0.32339   1.00
C1       0.41067    0.60003    0.32339   1.00
O1       0.33333    0.66667    0.54167   1.00
Zn      0.33333    0.66667    0.57078   1.00
Zn      0.37621    0.61515    0.53275   1.00
Zn      0.38485    0.76106    0.53275   1.00
Zn      0.23894    -0.37621   0.53275   1.00
O2       0.35943    0.60527    0.58080   1.00
O2       0.39473    0.75417    0.58080   1.00
O2       0.24583    0.64057    0.58080   1.00
O2       0.40494    0.57972    0.55486   1.00
O2       0.45355    0.67129    0.51557   1.00
O2       0.31407    0.54080    0.51596   1.00
O2       0.42028    0.82523    0.55486   1.00
O2       0.45920    0.77327    0.51596   1.00
O2       0.32871    -0.21774   0.51557   1.00
O2       0.17477    0.59506    0.55486   1.00
O2       0.21774    0.54645    0.51557   1.00
O2       0.22673    -0.31407   0.51596   1.00
C1       0.39353    0.58057    0.57309   1.00
C1       0.41943    0.81297    0.57309   1.00
C1       0.18703    0.60647    0.57309   1.00
C1       0.47730    0.73330    0.50994   1.00
C1       0.25600    0.52270    0.50994   1.00
C1       0.26670    -0.25600   0.50994   1.00
O1       0.33333    0.66667    0.04167   1.00
Zn      0.33333    0.66667    0.07078   1.00
Zn      0.38485    -0.37621   0.03275   1.00
Zn      0.23894    0.61515    0.03275   1.00
Zn      0.37621    0.76106    0.03275   1.00
O2       0.39473    0.64057    0.08080   1.00
O2       0.24583    0.60527    0.08080   1.00
O2       0.35943    0.75417    0.08080   1.00
O2       0.42028    0.59506    0.05486   1.00
O2       0.32871    0.54645    0.01557   1.00
O2       0.45920    -0.31407   0.01596   1.00
O2       0.17477    0.57972    0.05486   1.00
O2       0.22673    0.54080    0.01596   1.00
O2       0.21774    0.67129    0.01557   1.00
O2       0.40494    0.82523    0.05486   1.00
O2       0.45355    -0.21774   0.01557   1.00
O2       0.31407    0.77327    0.01596   1.00
C1       0.41943    0.60647    0.07309   1.00
C1       0.18703    0.58057    0.07309   1.00
C1       0.39353    0.81297    0.07309   1.00
C1       0.26670    0.52270    0.00994   1.00
C1       0.47730    -0.25600   0.00994   1.00
C1       0.25600    0.73330    0.00994   1.00
O1       0.33333    0.66667    0.79167   1.00
Zn      0.33333    0.66667    0.76256   1.00
Zn      0.29046    0.71818    0.80058   1.00
Zn      0.28182    0.57227    0.80058   1.00
Zn      0.42773    0.70954    0.80058   1.00
O2       0.30723    0.72807    0.75254   1.00
O2       0.27193    0.57917    0.75254   1.00
O2       0.42083    0.69277    0.75254   1.00
O2       0.26172    0.75362    0.77848   1.00
O2       0.21312    0.66204    0.81776   1.00
O2       0.35260    0.79253    0.81737   1.00
O2       0.24638    0.50811    0.77848   1.00
O2       0.20747    0.56006    0.81737   1.00
O2       0.33796    0.55107    0.81776   1.00
O2       0.49189    0.73828    0.77848   1.00
O2       0.44893    0.78688    0.81776   1.00
O2       0.43994    0.64740    0.81737   1.00
C1       0.27313    0.75277    0.76025   1.00
C1       0.24723    0.52037    0.76025   1.00
C1       0.47963    0.72687    0.76025   1.00
C1       0.18937    0.60003    0.82339   1.00
C1       0.41067    0.81063    0.82339   1.00
C1       0.39997    0.58933    0.82339   1.00
C2       -0.20556   0.54355    0.50280   1.00
C3       -0.19686   0.60526    0.49946   1.00
H1       -0.20760   0.61502    0.48675   1.00
C3       -0.19118   0.52973    0.52160   1.00
H1       -0.19788   0.48654    0.52435   1.00
C3a      -0.17270   0.65522    0.51410   1.00
H1       -0.16677   0.69835    0.51178   1.00
C3b      -0.16702   0.57822    0.53679   1.00
H1       -0.15828   0.56813    0.54973   1.00
C6       -0.15866   0.64155    0.53326   1.00
C6       -0.13378   0.69354    0.54954   1.00
C3c      -0.17952   0.70076    0.56174   1.00
H1       -0.22591   0.66956    0.56080   1.00
C3d      -0.06376   0.73518    0.55177   1.00
H1       -0.03167   0.73216    0.54372   1.00
C3       -0.15461   0.75202    0.57620   1.00
H1       -0.18518   0.75636    0.58466   1.00
C3       -0.04190   0.78825    0.56675   1.00
H1       0.00448    0.81790    0.56847   1.00
C2       -0.08630   0.79640    0.57845   1.00
C2       0.45645    0.25089    0.50280   1.00
C3       0.39474    0.19788    0.49946   1.00
H1       0.38498    0.17738    0.48675   1.00
C3       0.47027    0.27909    0.52160   1.00
H1       0.51346    0.31558    0.52435   1.00
C3a      0.34478    0.17208    0.51410   1.00
H1       0.30165    0.13487    0.51178   1.00
C3b      0.42178    0.25476    0.53679   1.00
H1       0.43187    0.27359    0.54973   1.00
C6       0.35845    0.19979    0.53326   1.00
C6       0.30646    0.17268    0.54954   1.00
C3c      0.29924    0.11972    0.56174   1.00
H1       0.33044    0.10453    0.56080   1.00
C3d      0.26482    0.20106    0.55177   1.00
H1       0.26784    0.23617    0.54372   1.00
C3       0.24798    0.09337    0.57620   1.00
H1       0.24364    0.05846    0.58466   1.00
C3       0.21175    0.16985    0.56675   1.00
H1       0.18210    0.18658    0.56847   1.00
C2       0.20360    0.11730    0.57845   1.00
C2       0.74911    0.20556    0.50280   1.00
C3       0.80212    0.19686    0.49946   1.00
H1       0.82262    0.20760    0.48675   1.00
C3       0.72091    0.19118    0.52160   1.00
H1       0.68442    0.19788    0.52435   1.00
C3a      0.82792    0.17270    0.51410   1.00
H1       0.86513    0.16677    0.51178   1.00
C3b      0.74524    0.16702    0.53679   1.00
H1       0.72641    0.15828    0.54973   1.00
C6       0.80021    0.15866    0.53326   1.00
C6       0.82732    0.13378    0.54954   1.00
C3c      0.88028    0.17952    0.56174   1.00
H1       0.89547    0.22591    0.56080   1.00
C3d      0.79894    0.06376    0.55177   1.00
H1       0.76383    0.03167    0.54372   1.00
C3       0.90663    0.15461    0.57620   1.00
H1       0.94154    0.18518    0.58466   1.00
C3       0.83015    0.04190    0.56675   1.00
H1       0.81342    0.99552    0.56847   1.00
C2       0.88270    0.08630    0.57845   1.00
C2       0.54355    -0.20556   0.99720   1.00
C3       0.60526    -0.19686   0.00054   1.00
H1       0.61502    -0.20760   0.01325   1.00
C3       0.52973    -0.19118   0.97840   1.00
H1       0.48654    -0.19788   0.97565   1.00
C3a      0.65522    -0.17270   0.98590   1.00
H1       0.69835    -0.16677   0.98822   1.00
C3b      0.57822    -0.16702   0.96321   1.00
H1       0.56813    -0.15828   0.95027   1.00
C6       0.64155    -0.15866   0.96674   1.00
C6       0.69354    -0.13378   0.95046   1.00
C3c      0.70076    -0.17952   0.93826   1.00
H1       0.66956    -0.22591   0.93920   1.00
C3d      0.73518    -0.06376   0.94823   1.00
H1       0.73216    -0.03167   0.95628   1.00
C3       0.75202    -0.15461   0.92380   1.00
H1       0.75636    -0.18518   0.91534   1.00
C3       0.78825    -0.04190   0.93325   1.00
H1       0.81790    0.00448    0.93153   1.00
C2       0.79640    -0.08630   0.92155   1.00
C2       0.25089    0.45645    0.99720   1.00
C3       0.19788    0.39474    0.00054   1.00
H1       0.17738    0.38498    0.01325   1.00
C3       0.27909    0.47027    0.97840   1.00
H1       0.31558    0.51346    0.97565   1.00
C3a      0.17208    0.34478    0.98590   1.00
H1       0.13487    0.30165    0.98822   1.00
C3b      0.25476    0.42178    0.96321   1.00
H1       0.27359    0.43187    0.95027   1.00
C6       0.19979    0.35845    0.96674   1.00
C6       0.17268    0.30646    0.95046   1.00
C3c      0.11972    0.29924    0.93826   1.00
H1       0.10453    0.33044    0.93920   1.00
C3d      0.20106    0.26482    0.94823   1.00
H1       0.23617    0.26784    0.95628   1.00
C3       0.09337    0.24798    0.92380   1.00
H1       0.05846    0.24364    0.91534   1.00
C3       0.16985    0.21175    0.93325   1.00
H1       0.18658    0.18210    0.93153   1.00
C2       0.11730    0.20360    0.92155   1.00
C2       0.20556    0.74911    0.99720   1.00
C3       0.19686    0.80212    0.00054   1.00
H1       0.20760    0.82262    0.01325   1.00
C3       0.19118    0.72091    0.97840   1.00
H1       0.19788    0.68442    0.97565   1.00
C3a      0.17270    0.82792    0.98590   1.00
H1       0.16677    0.86513    0.98822   1.00
C3b      0.16702    0.74524    0.96321   1.00
H1       0.15828    0.72641    0.95027   1.00
C6       0.15866    0.80021    0.96674   1.00
C6       0.13378    0.82732    0.95046   1.00
C3c      0.17952    0.88028    0.93826   1.00
H1       0.22591    0.89547    0.93920   1.00
C3d      0.06376    0.79894    0.94823   1.00
H1       0.03167    0.76383    0.95628   1.00
C3       0.15461    0.90663    0.92380   1.00
H1       0.18518    0.94154    0.91534   1.00
C3       0.04190    0.83015    0.93325   1.00
H1       0.99552    0.81342    0.93153   1.00
C2       0.08630    0.88270    0.92155   1.00
C2       0.20556    0.45645    0.49720   1.00
C3       0.19686    0.39474    0.50054   1.00
H1       0.20760    0.38498    0.51325   1.00
C3       0.19118    0.47027    0.47840   1.00
H1       0.19788    0.51346    0.47565   1.00
C3a      0.17270    0.34478    0.48590   1.00
H1       0.16677    0.30165    0.48822   1.00
C3b      0.16702    0.42178    0.46321   1.00
H1       0.15828    0.43187    0.45027   1.00
C6       0.15866    0.35845    0.46674   1.00
C6       0.13378    0.30646    0.45046   1.00
C3c      0.17952    0.29924    0.43826   1.00
H1       0.22591    0.33044    0.43920   1.00
C3d      0.06376    0.26482    0.44823   1.00
H1       0.03167    0.26784    0.45628   1.00
C3       0.15461    0.24798    0.42380   1.00
H1       0.18518    0.24364    0.41534   1.00
C3       0.04190    0.21175    0.43325   1.00
H1       0.99552    0.18210    0.43153   1.00
C2       0.08630    0.20360    0.42155   1.00
C2       0.54355    0.74911    0.49720   1.00
C3       0.60526    0.80212    0.50054   1.00
H1       0.61502    0.82262    0.51325   1.00
C3       0.52973    0.72091    0.47840   1.00
H1       0.48654    0.68442    0.47565   1.00
C3a      0.65522    0.82792    0.48590   1.00
H1       0.69835    0.86513    0.48822   1.00
C3b      0.57822    0.74524    0.46321   1.00
H1       0.56813    0.72641    0.45027   1.00
C6       0.64155    0.80021    0.46674   1.00
C6       0.69354    0.82732    0.45046   1.00
C3c      0.70076    0.88028    0.43826   1.00
H1       0.66956    0.89547    0.43920   1.00
C3d      0.73518    0.79894    0.44823   1.00
H1       0.73216    0.76383    0.45628   1.00
C3       0.75202    0.90663    0.42380   1.00
H1       0.75636    0.94154    0.41534   1.00
C3       0.78825    0.83015    0.43325   1.00
H1       0.81790    0.81342    0.43153   1.00
C2       0.79640    0.88270    0.42155   1.00
C2       0.25089    -0.20556   0.49720   1.00
C3       0.19788    -0.19686   0.50054   1.00
H1       0.17738    -0.20760   0.51325   1.00
C3       0.27909    -0.19118   0.47840   1.00
H1       0.31558    -0.19788   0.47565   1.00
C3a      0.17208    -0.17270   0.48590   1.00
H1       0.13487    -0.16677   0.48822   1.00
C3b      0.25476    -0.16702   0.46321   1.00
H1       0.27359    -0.15828   0.45027   1.00
C6       0.19979    -0.15866   0.46674   1.00
C6       0.17268    -0.13378   0.45046   1.00
C3c      0.11972    -0.17952   0.43826   1.00
H1       0.10453    -0.22591   0.43920   1.00
C3d      0.20106    -0.06376   0.44823   1.00
H1       0.23617    -0.03167   0.45628   1.00
C3       0.09337    -0.15461   0.42380   1.00
H1       0.05846    -0.18518   0.41534   1.00
C3       0.16985    -0.04190   0.43325   1.00
H1       0.18658    0.00448    0.43153   1.00
C2       0.11730    -0.08630   0.42155   1.00
C2       0.45645    0.20556    0.00280   1.00
C3       0.39474    0.19686    0.99946   1.00
H1       0.38498    0.20760    0.98675   1.00
C3       0.47027    0.19118    0.02160   1.00
H1       0.51346    0.19788    0.02435   1.00
C3a      0.34478    0.17270    0.01410   1.00
H1       0.30165    0.16677    0.01178   1.00
C3b      0.42178    0.16702    0.03679   1.00
H1       0.43187    0.15828    0.04973   1.00
C6       0.35845    0.15866    0.03326   1.00
C6       0.30646    0.13378    0.04954   1.00
C3c      0.29924    0.17952    0.06174   1.00
H1       0.33044    0.22591    0.06080   1.00
C3d      0.26482    0.06376    0.05177   1.00
H1       0.26784    0.03167    0.04372   1.00
C3       0.24798    0.15461    0.07620   1.00
H1       0.24364    0.18518    0.08466   1.00
C3       0.21175    0.04190    0.06675   1.00
H1       0.18210    0.99552    0.06847   1.00
C2       0.20360    0.08630    0.07845   1.00
C2       0.74911    0.54355    0.00280   1.00
C3       0.80212    0.60526    0.99946   1.00
H1       0.82262    0.61502    0.98675   1.00
C3       0.72091    0.52973    0.02160   1.00
H1       0.68442    0.48654    0.02435   1.00
C3a      0.82792    0.65522    0.01410   1.00
H1       0.86513    0.69835    0.01178   1.00
C3b      0.74524    0.57822    0.03679   1.00
H1       0.72641    0.56813    0.04973   1.00
C6       0.80021    0.64155    0.03326   1.00
C6       0.82732    0.69354    0.04954   1.00
C3c      0.88028    0.70076    0.06174   1.00
H1       0.89547    0.66956    0.06080   1.00
C3d      0.79894    0.73518    0.05177   1.00
H1       0.76383    0.73216    0.04372   1.00
C3       0.90663    0.75202    0.07620   1.00
H1       0.94154    0.75636    0.08466   1.00
C3       0.83015    0.78825    0.06675   1.00
H1       0.81342    0.81790    0.06847   1.00
C2       0.88270    0.79640    0.07845   1.00
C2       -0.20556   0.25089    0.00280   1.00
C3       -0.19686   0.19788    0.99946   1.00
H1       -0.20760   0.17738    0.98675   1.00
C3       -0.19118   0.27909    0.02160   1.00
H1       -0.19788   0.31558    0.02435   1.00
C3a      -0.17270   0.17208    0.01410   1.00
H1       -0.16677   0.13487    0.01178   1.00
C3b      -0.16702   0.25476    0.03679   1.00
H1       -0.15828   0.27359    0.04973   1.00
C6       -0.15866   0.19979    0.03326   1.00
C6       -0.13378   0.17268    0.04954   1.00
C3c      -0.17952   0.11972    0.06174   1.00
H1       -0.22591   0.10453    0.06080   1.00
C3d      -0.06376   0.20106    0.05177   1.00
H1       -0.03167   0.23617    0.04372   1.00
C3       -0.15461   0.09337    0.07620   1.00
H1       -0.18518   0.05846    0.08466   1.00
C3       -0.04190   0.16985    0.06675   1.00
H1       0.00448    0.18658    0.06847   1.00
C2       -0.08630   0.11730    0.07845   1.00
C2       0.46111    0.87688    0.83613   1.00
C3       0.46981    0.93859    0.83279   1.00
H1       0.45907    0.94835    0.82008   1.00
C3       0.47549    0.86306    0.85493   1.00
H1       0.46879    0.81987    0.85768   1.00
C3a      0.49397    0.98855    0.84743   1.00
H1       0.49990    1.03168    0.84511   1.00
C3b      0.49965    0.91155    0.87012   1.00
H1       0.50839    0.90146    0.88306   1.00
C6       0.50801    0.97488    0.86659   1.00
C6       0.53289    0.02687    0.88287   1.00
C3c      0.48715    0.03409    0.89507   1.00
H1       0.44076    0.00289    0.89413   1.00
C3d      0.60291    0.06851    0.88510   1.00
H1       0.63500    0.06549    0.87705   1.00
C3       0.51206    0.08535    0.90953   1.00
H1       0.48149    0.08969    0.91799   1.00
C3       0.62477    0.12158    0.90008   1.00
H1       0.67115    0.15123    0.90180   1.00
C2       0.58037    0.12973    0.91178   1.00
C2       0.12312    0.58422    0.83613   1.00
C3       0.06141    0.53121    0.83279   1.00
H1       0.05165    0.51071    0.82008   1.00
C3       0.13694    0.61242    0.85493   1.00
H1       0.18013    0.64891    0.85768   1.00
C3a      0.01145    0.50541    0.84743   1.00
H1       -0.03168   0.46820    0.84511   1.00
C3b      0.08845    0.58809    0.87012   1.00
H1       0.09854    0.60692    0.88306   1.00
C6       0.02512    0.53312    0.86659   1.00
C6       0.97313    0.50601    0.88287   1.00
C3c      0.96591    0.45305    0.89507   1.00
H1       0.99711    0.43786    0.89413   1.00
C3d      0.93149    0.53439    0.88510   1.00
H1       0.93451    0.56950    0.87705   1.00
C3       0.91465    0.42670    0.90953   1.00
H1       0.91031    0.39179    0.91799   1.00
C3       0.87842    0.50318    0.90008   1.00
H1       0.84877    0.51991    0.90180   1.00
C2       0.87027    0.45063    0.91178   1.00
C2       0.41578    0.53889    0.83613   1.00
C3       0.46879    0.53019    0.83279   1.00
H1       0.48929    0.54093    0.82008   1.00
C3       0.38758    0.52451    0.85493   1.00
H1       0.35109    0.53121    0.85768   1.00
C3a      0.49459    0.50603    0.84743   1.00
H1       0.53180    0.50010    0.84511   1.00
C3b      0.41191    0.50035    0.87012   1.00
H1       0.39308    0.49161    0.88306   1.00
C6       0.46688    0.49199    0.86659   1.00
C6       0.49399    0.46711    0.88287   1.00
C3c      0.54695    0.51285    0.89507   1.00
H1       0.56214    0.55924    0.89413   1.00
C3d      0.46561    0.39709    0.88510   1.00
H1       0.43050    0.36500    0.87705   1.00
C3       0.57330    0.48794    0.90953   1.00
H1       0.60821    0.51851    0.91799   1.00
C3       0.49682    0.37523    0.90008   1.00
H1       0.48009    0.32885    0.90180   1.00
C2       0.54937    0.41963    0.91178   1.00
C2       0.21022    0.12777    0.33053   1.00
C3       0.27193    0.13647    0.33387   1.00
H1       0.28169    0.12573    0.34658   1.00
C3       0.19640    0.14215    0.31173   1.00
H1       0.15321    0.13545    0.30898   1.00
C3a      0.32189    0.16063    0.31923   1.00
H1       0.36502    0.16656    0.32155   1.00
C3b      0.24489    0.16631    0.29654   1.00
H1       0.23480    0.17505    0.28360   1.00
C6       0.30822    0.17467    0.30007   1.00
C6       0.36021    0.19955    0.28379   1.00
C3c      0.36743    0.15381    0.27159   1.00
H1       0.33623    0.10742    0.27253   1.00
C3d      0.40185    0.26957    0.28156   1.00
H1       0.39883    0.30166    0.28961   1.00
C3       0.41869    0.17872    0.25713   1.00
H1       0.42303    0.14815    0.24867   1.00
C3       0.45492    0.29143    0.26658   1.00
H1       0.48457    0.33781    0.26486   1.00
C2       0.46307    0.24703    0.25488   1.00
C2       0.91756    0.78978    0.33053   1.00
C3       0.86455    0.72807    0.33387   1.00
H1       0.84405    0.71831    0.34658   1.00
C3       0.94576    0.80360    0.31173   1.00
H1       0.98225    0.84679    0.30898   1.00
C3a      0.83875    0.67811    0.31923   1.00
H1       0.80154    0.63498    0.32155   1.00
C3b      0.92143    0.75511    0.29654   1.00
H1       0.94026    0.76520    0.28360   1.00
C6       0.86646    0.69178    0.30007   1.00
C6       0.83935    0.63979    0.28379   1.00
C3c      0.78639    0.63257    0.27159   1.00
H1       0.77120    0.66377    0.27253   1.00
C3d      0.86773    0.59815    0.28156   1.00
H1       0.90284    0.60117    0.28961   1.00
C3       0.76004    0.58131    0.25713   1.00
H1       0.72513    0.57697    0.24867   1.00
C3       0.83652    0.54508    0.26658   1.00
H1       0.85325    0.51543    0.26486   1.00
C2       0.78397    0.53693    0.25488   1.00
C2       0.87223    0.08244    0.33053   1.00
C3       0.86353    0.13545    0.33387   1.00
H1       0.87427    0.15595    0.34658   1.00
C3       0.85785    0.05424    0.31173   1.00
H1       0.86455    0.01775    0.30898   1.00
C3a      0.83937    0.16125    0.31923   1.00
H1       0.83344    0.19846    0.32155   1.00
C3b      0.83369    0.07857    0.29654   1.00
H1       0.82495    0.05974    0.28360   1.00
C6       0.82533    0.13354    0.30007   1.00
C6       0.80045    0.16065    0.28379   1.00
C3c      0.84619    0.21361    0.27159   1.00
H1       0.89258    0.22880    0.27253   1.00
C3d      0.73043    0.13227    0.28156   1.00
H1       0.69834    0.09716    0.28961   1.00
C3       0.82128    0.23996    0.25713   1.00
H1       0.85185    0.27487    0.24867   1.00
C3       0.70857    0.16348    0.26658   1.00
H1       0.66219    0.14675    0.26486   1.00
C2       0.75297    0.21603    0.25488   1.00
C2       0.87223    0.78978    0.83053   1.00
C3       0.86353    0.72807    0.83387   1.00
H1       0.87427    0.71831    0.84658   1.00
C3       0.85785    0.80360    0.81173   1.00
H1       0.86455    0.84679    0.80898   1.00
C3a      0.83937    0.67811    0.81923   1.00
H1       0.83344    0.63498    0.82155   1.00
C3b      0.83369    0.75511    0.79654   1.00
H1       0.82495    0.76520    0.78360   1.00
C6       0.82533    0.69178    0.80007   1.00
C6       0.80045    0.63979    0.78379   1.00
C3c      0.84619    0.63257    0.77159   1.00
H1       0.89258    0.66377    0.77253   1.00
C3d      0.73043    0.59815    0.78156   1.00
H1       0.69834    0.60117    0.78961   1.00
C3       0.82128    0.58131    0.75713   1.00
H1       0.85185    0.57697    0.74867   1.00
C3       0.70857    0.54508    0.76658   1.00
H1       0.66219    0.51543    0.76486   1.00
C2       0.75297    0.53693    0.75488   1.00
C2       0.21022    0.08244    0.83053   1.00
C3       0.27193    0.13545    0.83387   1.00
H1       0.28169    0.15595    0.84658   1.00
C3       0.19640    0.05424    0.81173   1.00
H1       0.15321    0.01775    0.80898   1.00
C3a      0.32189    0.16125    0.81923   1.00
H1       0.36502    0.19846    0.82155   1.00
C3b      0.24489    0.07857    0.79654   1.00
H1       0.23480    0.05974    0.78360   1.00
C6       0.30822    0.13354    0.80007   1.00
C6       0.36021    0.16065    0.78379   1.00
C3c      0.36743    0.21361    0.77159   1.00
H1       0.33623    0.22880    0.77253   1.00
C3d      0.40185    0.13227    0.78156   1.00
H1       0.39883    0.09716    0.78961   1.00
C3       0.41869    0.23996    0.75713   1.00
H1       0.42303    0.27487    0.74867   1.00
C3       0.45492    0.16348    0.76658   1.00
H1       0.48457    0.14675    0.76486   1.00
C2       0.46307    0.21603    0.75488   1.00
C2       0.91756    0.12777    0.83053   1.00
C3       0.86455    0.13647    0.83387   1.00
H1       0.84405    0.12573    0.84658   1.00
C3       0.94576    0.14215    0.81173   1.00
H1       0.98225    0.13545    0.80898   1.00
C3a      0.83875    0.16063    0.81923   1.00
H1       0.80154    0.16656    0.82155   1.00
C3b      0.92143    0.16631    0.79654   1.00
H1       0.94026    0.17505    0.78360   1.00
C6       0.86646    0.17467    0.80007   1.00
C6       0.83935    0.19955    0.78379   1.00
C3c      0.78639    0.15381    0.77159   1.00
H1       0.77120    0.10742    0.77253   1.00
C3d      0.86773    0.26957    0.78156   1.00
H1       0.90284    0.30166    0.78961   1.00
C3       0.76004    0.17872    0.75713   1.00
H1       0.72513    0.14815    0.74867   1.00
C3       0.83652    0.29143    0.76658   1.00
H1       0.85325    0.33781    0.76486   1.00
C2       0.78397    0.24703    0.75488   1.00
C2       0.12312    0.53889    0.33613   1.00
C3       0.06141    0.53019    0.33279   1.00
H1       0.05165    0.54093    0.32008   1.00
C3       0.13694    0.52451    0.35493   1.00
H1       0.18013    0.53121    0.35768   1.00
C3a      0.01145    0.50603    0.34743   1.00
H1       -0.03168   0.50010    0.34511   1.00
C3b      0.08845    0.50035    0.37012   1.00
H1       0.09854    0.49161    0.38306   1.00
C6       0.02512    0.49199    0.36659   1.00
C6       0.97313    0.46711    0.38287   1.00
C3c      0.96591    0.51285    0.39507   1.00
H1       0.99711    0.55924    0.39413   1.00
C3d      0.93149    0.39709    0.38510   1.00
H1       0.93451    0.36500    0.37705   1.00
C3       0.91465    0.48794    0.40953   1.00
H1       0.91031    0.51851    0.41799   1.00
C3       0.87842    0.37523    0.40008   1.00
H1       0.84877    0.32885    0.40180   1.00
C2       0.87027    0.41963    0.41178   1.00
C2       0.41578    0.87688    0.33613   1.00
C3       0.46879    0.93859    0.33279   1.00
H1       0.48929    0.94835    0.32008   1.00
C3       0.38758    0.86306    0.35493   1.00
H1       0.35109    0.81987    0.35768   1.00
C3a      0.49459    0.98855    0.34743   1.00
H1       0.53180    1.03168    0.34511   1.00
C3b      0.41191    0.91155    0.37012   1.00
H1       0.39308    0.90146    0.38306   1.00
C6       0.46688    0.97488    0.36659   1.00
C6       0.49399    0.02687    0.38287   1.00
C3c      0.54695    0.03409    0.39507   1.00
H1       0.56214    0.00289    0.39413   1.00
C3d      0.46561    0.06851    0.38510   1.00
H1       0.43050    0.06549    0.37705   1.00
C3       0.57330    0.08535    0.40953   1.00
H1       0.60821    0.08969    0.41799   1.00
C3       0.49682    0.12158    0.40008   1.00
H1       0.48009    0.15123    0.40180   1.00
C2       0.54937    0.12973    0.41178   1.00
C2       0.46111    0.58422    0.33613   1.00
C3       0.46981    0.53121    0.33279   1.00
H1       0.45907    0.51071    0.32008   1.00
C3       0.47549    0.61242    0.35493   1.00
H1       0.46879    0.64891    0.35768   1.00
C3a      0.49397    0.50541    0.34743   1.00
H1       0.49990    0.46820    0.34511   1.00
C3b      0.49965    0.58809    0.37012   1.00
H1       0.50839    0.60692    0.38306   1.00
C6       0.50801    0.53312    0.36659   1.00
C6       0.53289    0.50601    0.38287   1.00
C3c      0.48715    0.45305    0.39507   1.00
H1       0.44076    0.43786    0.39413   1.00
C3d      0.60291    0.53439    0.38510   1.00
H1       0.63500    0.56950    0.37705   1.00
C3       0.51206    0.42670    0.40953   1.00
H1       0.48149    0.39179    0.41799   1.00
C3       0.62477    0.50318    0.40008   1.00
H1       0.67115    0.51991    0.40180   1.00
C2       0.58037    0.45063    0.41178   1.00
C2       0.12777    0.21022    0.16947   1.00
C3       0.13647    0.27193    0.16613   1.00
H1       0.12573    0.28169    0.15342   1.00
C3       0.14215    0.19640    0.18827   1.00
H1       0.13545    0.15321    0.19102   1.00
C3a      0.16063    0.32189    0.18077   1.00
H1       0.16656    0.36502    0.17845   1.00
C3b      0.16631    0.24489    0.20346   1.00
H1       0.17505    0.23480    0.21640   1.00
C6       0.17467    0.30822    0.19993   1.00
C6       0.19955    0.36021    0.21621   1.00
C3c      0.15381    0.36743    0.22841   1.00
H1       0.10742    0.33623    0.22747   1.00
C3d      0.26957    0.40185    0.21844   1.00
H1       0.30166    0.39883    0.21039   1.00
C3       0.17872    0.41869    0.24287   1.00
H1       0.14815    0.42303    0.25133   1.00
C3       0.29143    0.45492    0.23342   1.00
H1       0.33781    0.48457    0.23514   1.00
C2       0.24703    0.46307    0.24512   1.00
C2       0.78978    0.91756    0.16947   1.00
C3       0.72807    0.86455    0.16613   1.00
H1       0.71831    0.84405    0.15342   1.00
C3       0.80360    0.94576    0.18827   1.00
H1       0.84679    0.98225    0.19102   1.00
C3a      0.67811    0.83875    0.18077   1.00
H1       0.63498    0.80154    0.17845   1.00
C3b      0.75511    0.92143    0.20346   1.00
H1       0.76520    0.94026    0.21640   1.00
C6       0.69178    0.86646    0.19993   1.00
C6       0.63979    0.83935    0.21621   1.00
C3c      0.63257    0.78639    0.22841   1.00
H1       0.66377    0.77120    0.22747   1.00
C3d      0.59815    0.86773    0.21844   1.00
H1       0.60117    0.90284    0.21039   1.00
C3       0.58131    0.76004    0.24287   1.00
H1       0.57697    0.72513    0.25133   1.00
C3       0.54508    0.83652    0.23342   1.00
H1       0.51543    0.85325    0.23514   1.00
C2       0.53693    0.78397    0.24512   1.00
C2       0.08244    0.87223    0.16947   1.00
C3       0.13545    0.86353    0.16613   1.00
H1       0.15595    0.87427    0.15342   1.00
C3       0.05424    0.85785    0.18827   1.00
H1       0.01775    0.86455    0.19102   1.00
C3a      0.16125    0.83937    0.18077   1.00
H1       0.19846    0.83344    0.17845   1.00
C3b      0.07857    0.83369    0.20346   1.00
H1       0.05974    0.82495    0.21640   1.00
C6       0.13354    0.82533    0.19993   1.00
C6       0.16065    0.80045    0.21621   1.00
C3c      0.21361    0.84619    0.22841   1.00
H1       0.22880    0.89258    0.22747   1.00
C3d      0.13227    0.73043    0.21844   1.00
H1       0.09716    0.69834    0.21039   1.00
C3       0.23996    0.82128    0.24287   1.00
H1       0.27487    0.85185    0.25133   1.00
C3       0.16348    0.70857    0.23342   1.00
H1       0.14675    0.66219    0.23514   1.00
C2       0.21603    0.75297    0.24512   1.00
C2       0.87688    0.46111    0.66387   1.00
C3       0.93859    0.46981    0.66721   1.00
H1       0.94835    0.45907    0.67992   1.00
C3       0.86306    0.47549    0.64507   1.00
H1       0.81987    0.46879    0.64232   1.00
C3a      0.98855    0.49397    0.65257   1.00
H1       1.03168    0.49990    0.65489   1.00
C3b      0.91155    0.49965    0.62988   1.00
H1       0.90146    0.50839    0.61694   1.00
C6       0.97488    0.50801    0.63341   1.00
C6       0.02687    0.53289    0.61713   1.00
C3c      0.03409    0.48715    0.60493   1.00
H1       0.00289    0.44076    0.60587   1.00
C3d      0.06851    0.60291    0.61490   1.00
H1       0.06549    0.63500    0.62295   1.00
C3       0.08535    0.51206    0.59047   1.00
H1       0.08969    0.48149    0.58201   1.00
C3       0.12158    0.62477    0.59992   1.00
H1       0.15123    0.67115    0.59820   1.00
C2       0.12973    0.58037    0.58822   1.00
C2       0.58422    0.12312    0.66387   1.00
C3       0.53121    0.06141    0.66721   1.00
H1       0.51071    0.05165    0.67992   1.00
C3       0.61242    0.13694    0.64507   1.00
H1       0.64891    0.18013    0.64232   1.00
C3a      0.50541    0.01145    0.65257   1.00
H1       0.46820    -0.03168   0.65489   1.00
C3b      0.58809    0.08845    0.62988   1.00
H1       0.60692    0.09854    0.61694   1.00
C6       0.53312    0.02512    0.63341   1.00
C6       0.50601    0.97313    0.61713   1.00
C3c      0.45305    0.96591    0.60493   1.00
H1       0.43786    0.99711    0.60587   1.00
C3d      0.53439    0.93149    0.61490   1.00
H1       0.56950    0.93451    0.62295   1.00
C3       0.42670    0.91465    0.59047   1.00
H1       0.39179    0.91031    0.58201   1.00
C3       0.50318    0.87842    0.59992   1.00
H1       0.51991    0.84877    0.59820   1.00
C2       0.45063    0.87027    0.58822   1.00
C2       0.53889    0.41578    0.66387   1.00
C3       0.53019    0.46879    0.66721   1.00
H1       0.54093    0.48929    0.67992   1.00
C3       0.52451    0.38758    0.64507   1.00
H1       0.53121    0.35109    0.64232   1.00
C3a      0.50603    0.49459    0.65257   1.00
H1       0.50010    0.53180    0.65489   1.00
C3b      0.50035    0.41191    0.62988   1.00
H1       0.49161    0.39308    0.61694   1.00
C6       0.49199    0.46688    0.63341   1.00
C6       0.46711    0.49399    0.61713   1.00
C3c      0.51285    0.54695    0.60493   1.00
H1       0.55924    0.56214    0.60587   1.00
C3d      0.39709    0.46561    0.61490   1.00
H1       0.36500    0.43050    0.62295   1.00
C3       0.48794    0.57330    0.59047   1.00
H1       0.51851    0.60821    0.58201   1.00
C3       0.37523    0.49682    0.59992   1.00
H1       0.32885    0.48009    0.59820   1.00
C2       0.41963    0.54937    0.58822   1.00
C2       0.53889    0.12312    0.16387   1.00
C3       0.53019    0.06141    0.16721   1.00
H1       0.54093    0.05165    0.17992   1.00
C3       0.52451    0.13694    0.14507   1.00
H1       0.53121    0.18013    0.14232   1.00
C3a      0.50603    0.01145    0.15257   1.00
H1       0.50010    -0.03168   0.15489   1.00
C3b      0.50035    0.08845    0.12988   1.00
H1       0.49161    0.09854    0.11694   1.00
C6       0.49199    0.02512    0.13341   1.00
C6       0.46711    0.97313    0.11713   1.00
C3c      0.51285    0.96591    0.10493   1.00
H1       0.55924    0.99711    0.10587   1.00
C3d      0.39709    0.93149    0.11490   1.00
H1       0.36500    0.93451    0.12295   1.00
C3       0.48794    0.91465    0.09047   1.00
H1       0.51851    0.91031    0.08201   1.00
C3       0.37523    0.87842    0.09992   1.00
H1       0.32885    0.84877    0.09820   1.00
C2       0.41963    0.87027    0.08822   1.00
C2       0.87688    0.41578    0.16387   1.00
C3       0.93859    0.46879    0.16721   1.00
H1       0.94835    0.48929    0.17992   1.00
C3       0.86306    0.38758    0.14507   1.00
H1       0.81987    0.35109    0.14232   1.00
C3a      0.98855    0.49459    0.15257   1.00
H1       1.03168    0.53180    0.15489   1.00
C3b      0.91155    0.41191    0.12988   1.00
H1       0.90146    0.39308    0.11694   1.00
C6       0.97488    0.46688    0.13341   1.00
C6       0.02687    0.49399    0.11713   1.00
C3c      0.03409    0.54695    0.10493   1.00
H1       0.00289    0.56214    0.10587   1.00
C3d      0.06851    0.46561    0.11490   1.00
H1       0.06549    0.43050    0.12295   1.00
C3       0.08535    0.57330    0.09047   1.00
H1       0.08969    0.60821    0.08201   1.00
C3       0.12158    0.49682    0.09992   1.00
H1       0.15123    0.48009    0.09820   1.00
C2       0.12973    0.54937    0.08822   1.00
C2       0.58422    0.46111    0.16387   1.00
C3       0.53121    0.46981    0.16721   1.00
H1       0.51071    0.45907    0.17992   1.00
C3       0.61242    0.47549    0.14507   1.00
H1       0.64891    0.46879    0.14232   1.00
C3a      0.50541    0.49397    0.15257   1.00
H1       0.46820    0.49990    0.15489   1.00
C3b      0.58809    0.49965    0.12988   1.00
H1       0.60692    0.50839    0.11694   1.00
C6       0.53312    0.50801    0.13341   1.00
C6       0.50601    0.53289    0.11713   1.00
C3c      0.45305    0.48715    0.10493   1.00
H1       0.43786    0.44076    0.10587   1.00
C3d      0.53439    0.60291    0.11490   1.00
H1       0.56950    0.63500    0.12295   1.00
C3       0.42670    0.51206    0.09047   1.00
H1       0.39179    0.48149    0.08201   1.00
C3       0.50318    0.62477    0.09992   1.00
H1       0.51991    0.67115    0.09820   1.00
C2       0.45063    0.58037    0.08822   1.00
C2       0.78978    0.87223    0.66947   1.00
C3       0.72807    0.86353    0.66613   1.00
H1       0.71831    0.87427    0.65342   1.00
C3       0.80360    0.85785    0.68827   1.00
H1       0.84679    0.86455    0.69102   1.00
C3a      0.67811    0.83937    0.68077   1.00
H1       0.63498    0.83344    0.67845   1.00
C3b      0.75511    0.83369    0.70346   1.00
H1       0.76520    0.82495    0.71640   1.00
C6       0.69178    0.82533    0.69993   1.00
C6       0.63979    0.80045    0.71621   1.00
C3c      0.63257    0.84619    0.72841   1.00
H1       0.66377    0.89258    0.72747   1.00
C3d      0.59815    0.73043    0.71844   1.00
H1       0.60117    0.69834    0.71039   1.00
C3       0.58131    0.82128    0.74287   1.00
H1       0.57697    0.85185    0.75133   1.00
C3       0.54508    0.70857    0.73342   1.00
H1       0.51543    0.66219    0.73514   1.00
C2       0.53693    0.75297    0.74512   1.00
C2       0.08244    0.21022    0.66947   1.00
C3       0.13545    0.27193    0.66613   1.00
H1       0.15595    0.28169    0.65342   1.00
C3       0.05424    0.19640    0.68827   1.00
H1       0.01775    0.15321    0.69102   1.00
C3a      0.16125    0.32189    0.68077   1.00
H1       0.19846    0.36502    0.67845   1.00
C3b      0.07857    0.24489    0.70346   1.00
H1       0.05974    0.23480    0.71640   1.00
C6       0.13354    0.30822    0.69993   1.00
C6       0.16065    0.36021    0.71621   1.00
C3c      0.21361    0.36743    0.72841   1.00
H1       0.22880    0.33623    0.72747   1.00
C3d      0.13227    0.40185    0.71844   1.00
H1       0.09716    0.39883    0.71039   1.00
C3       0.23996    0.41869    0.74287   1.00
H1       0.27487    0.42303    0.75133   1.00
C3       0.16348    0.45492    0.73342   1.00
H1       0.14675    0.48457    0.73514   1.00
C2       0.21603    0.46307    0.74512   1.00
C2       0.12777    0.91756    0.66947   1.00
C3       0.13647    0.86455    0.66613   1.00
H1       0.12573    0.84405    0.65342   1.00
C3       0.14215    0.94576    0.68827   1.00
H1       0.13545    0.98225    0.69102   1.00
C3a      0.16063    0.83875    0.68077   1.00
H1       0.16656    0.80154    0.67845   1.00
C3b      0.16631    0.92143    0.70346   1.00
H1       0.17505    0.94026    0.71640   1.00
C6       0.17467    0.86646    0.69993   1.00
C6       0.19955    0.83935    0.71621   1.00
C3c      0.15381    0.78639    0.72841   1.00
H1       0.10742    0.77120    0.72747   1.00
C3d      0.26957    0.86773    0.71844   1.00
H1       0.30166    0.90284    0.71039   1.00
C3       0.17872    0.76004    0.74287   1.00
H1       0.14815    0.72513    0.75133   1.00
C3       0.29143    0.83652    0.73342   1.00
H1       0.33781    0.85325    0.73514   1.00
C2       0.24703    0.78397    0.74512   1.00
