data_IRMOF10_interpen_symm_ligand4lp_label_j_2.

_audit_creation_method             'generated by an auxiliary program of Tobunporous'

_symmetry_space_group_name_H-M     'P 1'
_symmetry_Int_Tables_number        1
_symmetry_cell_setting             triclinic

_cell_length_a                    22.6523
_cell_length_b                    22.6523
_cell_length_c                    65.9502
_cell_angle_alpha                 90.0000
_cell_angle_beta                  90.0000
_cell_angle_gamma                 120.0000

loop_
_atom_site_label
_atom_site_fract_x
_atom_site_fract_y
_atom_site_fract_z
_atom_site_occupancy
O1       0.00000    -0.00000   0.62500   1.00
Zn1      0.00000    -0.00000   0.59589   1.00
Zn1      0.94848    1.04288    0.63392   1.00
Zn1      0.09439    0.05152    0.63392   1.00
Zn1      -0.04288   0.90561    0.63392   1.00
O2       0.93860    0.02610    0.58587   1.00
O2       0.08750    0.06140    0.58587   1.00
O2       -0.02610   0.91250    0.58587   1.00
O2       0.91305    0.07161    0.61181   1.00
O2       0.00462    0.12022    0.65110   1.00
O2       0.87413    0.98074    0.65071   1.00
O2       0.15856    0.08695    0.61181   1.00
O2       0.10660    0.12587    0.65071   1.00
O2       0.11559    0.99538    0.65110   1.00
O2       -0.07161   0.84144    0.61181   1.00
O2       0.87978    0.88441    0.65110   1.00
O2       0.01926    0.89340    0.65071   1.00
C1       0.91390    0.06020    0.59358   1.00
C1       0.14630    0.08610    0.59358   1.00
C1       -0.06020   0.85370    0.59358   1.00
C1       0.06663    0.14397    0.65673   1.00
C1       0.85603    0.92267    0.65673   1.00
C1       0.07733    0.93337    0.65673   1.00
O1       -0.00000   0.00000    0.87500   1.00
Zn1      -0.00000   0.00000    0.90411   1.00
Zn1      1.04288    0.94848    0.86608   1.00
Zn1      0.05152    0.09439    0.86608   1.00
Zn1      0.90561    -0.04288   0.86608   1.00
O2       0.02610    0.93860    0.91413   1.00
O2       0.06140    0.08750    0.91413   1.00
O2       0.91250    -0.02610   0.91413   1.00
O2       0.07161    0.91305    0.88819   1.00
O2       0.12022    0.00462    0.84890   1.00
O2       0.98074    0.87413    0.84929   1.00
O2       0.08695    0.15856    0.88819   1.00
O2       0.12587    0.10660    0.84929   1.00
O2       0.99538    0.11559    0.84890   1.00
O2       0.84144    -0.07161   0.88819   1.00
O2       0.88441    0.87978    0.84890   1.00
O2       0.89340    0.01926    0.84929   1.00
C1       0.06020    0.91390    0.90642   1.00
C1       0.08610    0.14630    0.90642   1.00
C1       0.85370    -0.06020   0.90642   1.00
C1       0.14397    0.06663    0.84327   1.00
C1       0.92267    0.85603    0.84327   1.00
C1       0.93337    0.07733    0.84327   1.00
O1       0.00000    0.00000    0.37500   1.00
Zn1      0.00000    0.00000    0.40411   1.00
Zn1      0.05152    -0.04288   0.36608   1.00
Zn1      0.90561    0.94848    0.36608   1.00
Zn1      1.04288    0.09439    0.36608   1.00
O2       0.06140    -0.02610   0.41413   1.00
O2       0.91250    0.93860    0.41413   1.00
O2       0.02610    0.08750    0.41413   1.00
O2       0.08695    -0.07161   0.38819   1.00
O2       0.99538    0.87978    0.34890   1.00
O2       0.12587    0.01926    0.34929   1.00
O2       0.84144    0.91305    0.38819   1.00
O2       0.89340    0.87413    0.34929   1.00
O2       0.88441    0.00462    0.34890   1.00
O2       0.07161    0.15856    0.38819   1.00
O2       0.12022    0.11559    0.34890   1.00
O2       0.98074    0.10660    0.34929   1.00
C1       0.08610    -0.06020   0.40642   1.00
C1       0.85370    0.91390    0.40642   1.00
C1       0.06020    0.14630    0.40642   1.00
C1       0.93337    0.85603    0.34327   1.00
C1       0.14397    0.07733    0.34327   1.00
C1       0.92267    0.06663    0.34327   1.00
O1       0.00000    0.00000    0.12500   1.00
Zn1      0.00000    0.00000    0.09589   1.00
Zn1      -0.04288   0.05152    0.13392   1.00
Zn1      0.94848    0.90561    0.13392   1.00
Zn1      0.09439    1.04288    0.13392   1.00
O2       -0.02610   0.06140    0.08587   1.00
O2       0.93860    0.91250    0.08587   1.00
O2       0.08750    0.02610    0.08587   1.00
O2       -0.07161   0.08695    0.11181   1.00
O2       0.87978    0.99538    0.15110   1.00
O2       0.01926    0.12587    0.15071   1.00
O2       0.91305    0.84144    0.11181   1.00
O2       0.87413    0.89340    0.15071   1.00
O2       0.00462    0.88441    0.15110   1.00
O2       0.15856    0.07161    0.11181   1.00
O2       0.11559    0.12022    0.15110   1.00
O2       0.10660    0.98074    0.15071   1.00
C1       -0.06020   0.08610    0.09358   1.00
C1       0.91390    0.85370    0.09358   1.00
C1       0.14630    0.06020    0.09358   1.00
C1       0.85603    0.93337    0.15673   1.00
C1       0.07733    0.14397    0.15673   1.00
C1       0.06663    0.92267    0.15673   1.00
O1       0.66667    0.33333    0.95833   1.00
Zn1      0.66667    0.33333    0.92922   1.00
Zn1      0.61515    0.37621    0.96725   1.00
Zn1      0.76106    0.38485    0.96725   1.00
Zn1      -0.37621   0.23894    0.96725   1.00
O2       0.60527    0.35943    0.91920   1.00
O2       0.75417    0.39473    0.91920   1.00
O2       0.64057    0.24583    0.91920   1.00
O2       0.57972    0.40494    0.94514   1.00
O2       0.67129    0.45355    0.98443   1.00
O2       0.54080    0.31407    0.98404   1.00
O2       0.82523    0.42028    0.94514   1.00
O2       0.77327    0.45920    0.98404   1.00
O2       -0.21774   0.32871    0.98443   1.00
O2       0.59506    0.17477    0.94514   1.00
O2       0.54645    0.21774    0.98443   1.00
O2       -0.31407   0.22673    0.98404   1.00
C1       0.58057    0.39353    0.92691   1.00
C1       0.81297    0.41943    0.92691   1.00
C1       0.60647    0.18703    0.92691   1.00
C1       0.73330    0.47730    0.99006   1.00
C1       0.52270    0.25600    0.99006   1.00
C1       -0.25600   0.26670    0.99006   1.00
O1       0.66667    0.33333    0.20833   1.00
Zn1      0.66667    0.33333    0.23744   1.00
Zn1      0.70954    0.28182    0.19942   1.00
Zn1      0.71818    0.42773    0.19942   1.00
Zn1      0.57227    0.29046    0.19942   1.00
O2       0.69277    0.27193    0.24746   1.00
O2       0.72807    0.42083    0.24746   1.00
O2       0.57917    0.30723    0.24746   1.00
O2       0.73828    0.24638    0.22152   1.00
O2       0.78688    0.33796    0.18224   1.00
O2       0.64740    0.20747    0.18263   1.00
O2       0.75362    0.49189    0.22152   1.00
O2       0.79253    0.43994    0.18263   1.00
O2       0.66204    0.44893    0.18224   1.00
O2       0.50811    0.26172    0.22152   1.00
O2       0.55107    0.21312    0.18224   1.00
O2       0.56006    0.35260    0.18263   1.00
C1       0.72687    0.24723    0.23975   1.00
C1       0.75277    0.47963    0.23975   1.00
C1       0.52037    0.27313    0.23975   1.00
C1       0.81063    0.39997    0.17661   1.00
C1       0.58933    0.18937    0.17661   1.00
C1       0.60003    0.41067    0.17661   1.00
O1       0.66667    0.33333    0.70833   1.00
Zn1      0.66667    0.33333    0.73744   1.00
Zn1      0.71818    0.29046    0.69942   1.00
Zn1      0.57227    0.28182    0.69942   1.00
Zn1      0.70954    0.42773    0.69942   1.00
O2       0.72807    0.30723    0.74746   1.00
O2       0.57917    0.27193    0.74746   1.00
O2       0.69277    0.42083    0.74746   1.00
O2       0.75362    0.26172    0.72152   1.00
O2       0.66204    0.21312    0.68224   1.00
O2       0.79253    0.35260    0.68263   1.00
O2       0.50811    0.24638    0.72152   1.00
O2       0.56006    0.20747    0.68263   1.00
O2       0.55107    0.33796    0.68224   1.00
O2       0.73828    0.49189    0.72152   1.00
O2       0.78688    0.44893    0.68224   1.00
O2       0.64740    0.43994    0.68263   1.00
C1       0.75277    0.27313    0.73975   1.00
C1       0.52037    0.24723    0.73975   1.00
C1       0.72687    0.47963    0.73975   1.00
C1       0.60003    0.18937    0.67661   1.00
C1       0.81063    0.41067    0.67661   1.00
C1       0.58933    0.39997    0.67661   1.00
O1       0.66667    0.33333    0.45833   1.00
Zn1      0.66667    0.33333    0.42922   1.00
Zn1      -0.37621   0.38485    0.46725   1.00
Zn1      0.61515    0.23894    0.46725   1.00
Zn1      0.76106    0.37621    0.46725   1.00
O2       0.64057    0.39473    0.41920   1.00
O2       0.60527    0.24583    0.41920   1.00
O2       0.75417    0.35943    0.41920   1.00
O2       0.59506    0.42028    0.44514   1.00
O2       0.54645    0.32871    0.48443   1.00
O2       -0.31407   0.45920    0.48404   1.00
O2       0.57972    0.17477    0.44514   1.00
O2       0.54080    0.22673    0.48404   1.00
O2       0.67129    0.21774    0.48443   1.00
O2       0.82523    0.40494    0.44514   1.00
O2       -0.21774   0.45355    0.48443   1.00
O2       0.77327    0.31407    0.48404   1.00
C1       0.60647    0.41943    0.42691   1.00
C1       0.58057    0.18703    0.42691   1.00
C1       0.81297    0.39353    0.42691   1.00
C1       0.52270    0.26670    0.49006   1.00
C1       -0.25600   0.47730    0.49006   1.00
C1       0.73330    0.25600    0.49006   1.00
O1       0.33333    0.66667    0.29167   1.00
Zn1      0.33333    0.66667    0.26256   1.00
Zn1      0.28182    0.70954    0.30058   1.00
Zn1      0.42773    0.71818    0.30058   1.00
Zn1      0.29046    0.57227    0.30058   1.00
O2       0.27193    0.69277    0.25254   1.00
O2       0.42083    0.72807    0.25254   1.00
O2       0.30723    0.57917    0.25254   1.00
O2       0.24638    0.73828    0.27848   1.00
O2       0.33796    0.78688    0.31776   1.00
O2       0.20747    0.64740    0.31737   1.00
O2       0.49189    0.75362    0.27848   1.00
O2       0.43994    0.79253    0.31737   1.00
O2       0.44893    0.66204    0.31776   1.00
O2       0.26172    0.50811    0.27848   1.00
O2       0.21312    0.55107    0.31776   1.00
O2       0.35260    0.56006    0.31737   1.00
C1       0.24723    0.72687    0.26025   1.00
C1       0.47963    0.75277    0.26025   1.00
C1       0.27313    0.52037    0.26025   1.00
C1       0.39997    0.81063    0.32339   1.00
C1       0.18937    0.58933    0.32339   1.00
C1       0.41067    0.60003    0.32339   1.00
O1       0.33333    0.66667    0.54167   1.00
Zn1      0.33333    0.66667    0.57078   1.00
Zn1      0.37621    0.61515    0.53275   1.00
Zn1      0.38485    0.76106    0.53275   1.00
Zn1      0.23894    -0.37621   0.53275   1.00
O2       0.35943    0.60527    0.58080   1.00
O2       0.39473    0.75417    0.58080   1.00
O2       0.24583    0.64057    0.58080   1.00
O2       0.40494    0.57972    0.55486   1.00
O2       0.45355    0.67129    0.51557   1.00
O2       0.31407    0.54080    0.51596   1.00
O2       0.42028    0.82523    0.55486   1.00
O2       0.45920    0.77327    0.51596   1.00
O2       0.32871    -0.21774   0.51557   1.00
O2       0.17477    0.59506    0.55486   1.00
O2       0.21774    0.54645    0.51557   1.00
O2       0.22673    -0.31407   0.51596   1.00
C1       0.39353    0.58057    0.57309   1.00
C1       0.41943    0.81297    0.57309   1.00
C1       0.18703    0.60647    0.57309   1.00
C1       0.47730    0.73330    0.50994   1.00
C1       0.25600    0.52270    0.50994   1.00
C1       0.26670    -0.25600   0.50994   1.00
O1       0.33333    0.66667    0.04167   1.00
Zn1      0.33333    0.66667    0.07078   1.00
Zn1      0.38485    -0.37621   0.03275   1.00
Zn1      0.23894    0.61515    0.03275   1.00
Zn1      0.37621    0.76106    0.03275   1.00
O2       0.39473    0.64057    0.08080   1.00
O2       0.24583    0.60527    0.08080   1.00
O2       0.35943    0.75417    0.08080   1.00
O2       0.42028    0.59506    0.05486   1.00
O2       0.32871    0.54645    0.01557   1.00
O2       0.45920    -0.31407   0.01596   1.00
O2       0.17477    0.57972    0.05486   1.00
O2       0.22673    0.54080    0.01596   1.00
O2       0.21774    0.67129    0.01557   1.00
O2       0.40494    0.82523    0.05486   1.00
O2       0.45355    -0.21774   0.01557   1.00
O2       0.31407    0.77327    0.01596   1.00
C1       0.41943    0.60647    0.07309   1.00
C1       0.18703    0.58057    0.07309   1.00
C1       0.39353    0.81297    0.07309   1.00
C1       0.26670    0.52270    0.00994   1.00
C1       0.47730    -0.25600   0.00994   1.00
C1       0.25600    0.73330    0.00994   1.00
O1       0.33333    0.66667    0.79167   1.00
Zn1      0.33333    0.66667    0.76256   1.00
Zn1      0.29046    0.71818    0.80058   1.00
Zn1      0.28182    0.57227    0.80058   1.00
Zn1      0.42773    0.70954    0.80058   1.00
O2       0.30723    0.72807    0.75254   1.00
O2       0.27193    0.57917    0.75254   1.00
O2       0.42083    0.69277    0.75254   1.00
O2       0.26172    0.75362    0.77848   1.00
O2       0.21312    0.66204    0.81776   1.00
O2       0.35260    0.79253    0.81737   1.00
O2       0.24638    0.50811    0.77848   1.00
O2       0.20747    0.56006    0.81737   1.00
O2       0.33796    0.55107    0.81776   1.00
O2       0.49189    0.73828    0.77848   1.00
O2       0.44893    0.78688    0.81776   1.00
O2       0.43994    0.64740    0.81737   1.00
C1       0.27313    0.75277    0.76025   1.00
C1       0.24723    0.52037    0.76025   1.00
C1       0.47963    0.72687    0.76025   1.00
C1       0.18937    0.60003    0.82339   1.00
C1       0.41067    0.81063    0.82339   1.00
C1       0.39997    0.58933    0.82339   1.00
C4       -0.16736   0.63982    0.53505   1.00
C4       -0.14438   0.69140    0.55033   1.00
C3       -0.15187   0.58611    0.53559   1.00
C3       -0.11057   0.68891    0.56826   1.00
C3       -0.20732   0.64126    0.51847   1.00
C3       -0.15529   0.74796    0.54784   1.00
C2       -0.21660   0.53358    0.50470   1.00
C2       -0.09492   0.79738    0.58076   1.00
C3       -0.17596   0.53437    0.52096   1.00
C3       -0.08624   0.74038    0.58298   1.00
C3       -0.23118   0.58740    0.50394   1.00
C3       -0.12940   0.79950    0.56314   1.00
H1       -0.12193   0.58294    0.54653   1.00
H1       -0.10294   0.64926    0.57139   1.00
C5       -0.22216   0.69563    0.51664   1.00
C5       -0.19154   0.75184    0.53053   1.00
H1       -0.16322   0.49691    0.52225   1.00
H1       -0.06203   0.73571    0.59554   1.00
H1       -0.26012   0.58640    0.49201   1.00
H1       -0.13575   0.84073    0.56185   1.00
C6       -0.27046   0.69263    0.50026   1.00
C6       -0.19635   0.81538    0.52701   1.00
H2       -0.31422   0.64115    0.49960   1.00
H2       -0.14670   0.86014    0.52987   1.00
H2       -0.29447   0.72224    0.50431   1.00
H2       -0.20404   0.82190    0.51108   1.00
C6       -0.23544   0.71687    0.47901   1.00
C6       -0.25395   0.81687    0.53980   1.00
H2       -0.20300   0.69476    0.47610   1.00
H2       -0.25272   0.80061    0.55533   1.00
C6       -0.28286   0.70188    0.46014   1.00
C6       -0.25397   0.88593    0.54090   1.00
H2       -0.20060   0.77186    0.47985   1.00
H2       -0.30296   0.77804    0.53364   1.00
C6       -0.32661   0.62429    0.45589   1.00
C6       -0.19074   0.94134    0.55244   1.00
C6       -0.33043   0.73218    0.46276   1.00
C6       -0.25654   0.91280    0.51949   1.00
C6       -0.23745   0.73554    0.44122   1.00
C6       -0.31839   0.87395    0.55269   1.00
H2       -0.29456   0.60114    0.45430   1.00
H2       -0.18684   0.92350    0.56750   1.00
H2       -0.36284   0.59793    0.46808   1.00
H2       -0.14369   0.95535    0.54430   1.00
H2       -0.35593   0.61458    0.44193   1.00
H2       -0.19360   0.98772    0.55435   1.00
H2       -0.35974   0.72573    0.44896   1.00
H2       -0.26146   0.95827    0.52046   1.00
H2       -0.36670   0.70690    0.47504   1.00
H2       -0.21010   0.92649    0.51102   1.00
H2       -0.30096   0.78653    0.46619   1.00
H2       -0.29982   0.87419    0.51088   1.00
H2       -0.20328   0.71535    0.43856   1.00
H2       -0.31873   0.85558    0.56803   1.00
H2       -0.26831   0.72609    0.42759   1.00
H2       -0.32047   0.92095    0.55399   1.00
H2       -0.20626   0.79067    0.44312   1.00
H2       -0.36487   0.83625    0.54506   1.00
C4       0.35737    0.18875    0.53420   1.00
C4       0.30468    0.15998    0.54915   1.00
C3       0.42594    0.23823    0.53909   1.00
C3       0.31818    0.17320    0.57027   1.00
C3       0.34181    0.16793    0.51349   1.00
C3       0.23557    0.11612    0.54302   1.00
C2       0.46467    0.24450    0.50416   1.00
C2       0.19776    0.10452    0.57930   1.00
C3       0.47810    0.26507    0.52458   1.00
C3       0.26641    0.14665    0.58490   1.00
C3       0.39648    0.19622    0.49919   1.00
C3       0.18429    0.09043    0.55839   1.00
H1       0.44042    0.25712    0.55335   1.00
H1       0.36621    0.20205    0.57583   1.00
C5       0.27317    0.12044    0.50750   1.00
C5       0.21918    0.09866    0.52205   1.00
H1       0.52656    0.30038    0.52909   1.00
H1       0.27946    0.15832    0.59989   1.00
H1       0.38751    0.18232    0.48435   1.00
H1       0.13452    0.05946    0.55461   1.00
C6       0.25872    0.09339    0.48599   1.00
C6       0.14524    0.05820    0.51555   1.00
H2       0.29728    0.08068    0.48141   1.00
H2       0.11648    0.07840    0.52323   1.00
H2       0.21239    0.04401    0.48508   1.00
H2       0.13881    0.06728    0.49973   1.00
C6       0.25359    0.14334    0.47057   1.00
C6       0.11278    -0.02046   0.51905   1.00
H2       0.29496    0.19534    0.47338   1.00
H2       0.12744    -0.02965   0.53401   1.00
C6       0.25400    0.12810    0.44742   1.00
C6       0.03343    -0.06552   0.51717   1.00
H2       0.20677    0.14419    0.47392   1.00
H2       0.13601    -0.03933   0.50822   1.00
C6       0.32349    0.13667    0.44067   1.00
C6       -0.00366   -0.04934   0.53420   1.00
C6       0.19625    0.05541    0.44189   1.00
C6       0.00773    -0.05658   0.49625   1.00
C6       0.24230    0.17995    0.43518   1.00
C6       0.01348    -0.14154   0.51939   1.00
H2       0.36548    0.18715    0.44467   1.00
H2       0.01419    -0.05411   0.54917   1.00
H2       0.33309    0.09887    0.44778   1.00
H2       0.00475    0.00222    0.53280   1.00
H2       0.32491    0.13060    0.42429   1.00
H2       -0.05862   -0.08416   0.53361   1.00
H2       0.19390    0.04705    0.42553   1.00
H2       -0.04690   -0.09173   0.49455   1.00
H2       0.20458    0.01677    0.44903   1.00
H2       0.01631    -0.00501   0.49448   1.00
H2       0.14688    0.04755    0.44687   1.00
H2       0.03410    -0.06628   0.48399   1.00
H2       0.28221    0.23221    0.43838   1.00
H2       0.02988    -0.15080   0.53404   1.00
H2       0.24261    0.17164    0.41888   1.00
H2       -0.04164   -0.17510   0.51832   1.00
H2       0.19330    0.17545    0.43898   1.00
H2       0.03704    -0.15647   0.50752   1.00
C4       0.81171    0.16199    0.53209   1.00
C4       0.83799    0.13485    0.54683   1.00
C3       0.83628    0.23323    0.53019   1.00
C3       0.89535    0.17726    0.55923   1.00
C3       0.75874    0.11690    0.51862   1.00
C3       0.80641    0.06266    0.54945   1.00
C2       0.76095    0.21719    0.50163   1.00
C2       0.88912    0.08017    0.57733   1.00
C3       0.81201    0.26014    0.51538   1.00
C3       0.92002    0.15090    0.57409   1.00
C3       0.73568    0.14638    0.50367   1.00
C3       0.83286    0.03787    0.56483   1.00
H1       0.87227    0.26821    0.53964   1.00
H1       0.92177    0.22887    0.55779   1.00
C5       0.72997    0.04450    0.52035   1.00
C5       0.75029    0.01728    0.53683   1.00
H1       0.83203    0.31202    0.51475   1.00
H1       0.96140    0.18421    0.58260   1.00
H1       0.69842    0.11601    0.49373   1.00
H1       0.81148    -0.01311   0.56725   1.00
C6       0.67920    -0.00212   0.50466   1.00
C6       0.71281    -0.05851   0.54121   1.00
H2       0.69721    0.01934    0.48961   1.00
H2       0.70459    -0.06640   0.55750   1.00
H2       0.67856    -0.05033   0.50357   1.00
H2       0.66078    -0.08337   0.53554   1.00
C6       0.60482    -0.01676   0.50863   1.00
C6       0.74967    -0.09593   0.53242   1.00
H2       0.60613    0.03070    0.51266   1.00
H2       0.80431    -0.06579   0.53556   1.00
C6       0.55142    -0.05142   0.49119   1.00
C6       0.72425    -0.17061   0.53975   1.00
H2       0.58563    -0.04891   0.52212   1.00
H2       0.74531    -0.09644   0.51591   1.00
C6       0.56926    -0.00405   0.47245   1.00
C6       0.73876    -0.17311   0.56264   1.00
C6       0.54528    -0.11991   0.48457   1.00
C6       0.64707    -0.21770   0.53568   1.00
C6       0.48060    -0.06649   0.49908   1.00
C6       0.76347    -0.19937   0.52781   1.00
H2       0.57505    0.04521    0.47668   1.00
H2       0.79271    -0.13949   0.56607   1.00
H2       0.61659    0.00529    0.46536   1.00
H2       0.70941    -0.15749   0.57204   1.00
H2       0.52935    -0.02669   0.46095   1.00
H2       0.72522    -0.22462   0.56728   1.00
H2       0.50455    -0.14597   0.47345   1.00
H2       0.63092    -0.27054   0.53950   1.00
H2       0.59245    -0.11171   0.47760   1.00
H2       0.61679    -0.20247   0.54481   1.00
H2       0.53415    -0.15369   0.49757   1.00
H2       0.63525    -0.21577   0.51974   1.00
H2       0.48195    -0.01958   0.50376   1.00
H2       0.81834    -0.16830   0.53033   1.00
H2       0.44157    -0.09036   0.48736   1.00
H2       0.74778    -0.25141   0.53250   1.00
H2       0.46451    -0.10088   0.51209   1.00
H2       0.75416    -0.20023   0.51154   1.00
C4       0.65035    -0.15994   0.96809   1.00
C4       0.70352    -0.13239   0.95328   1.00
C3       0.61448    -0.23050   0.97324   1.00
C3       0.72937    -0.17193   0.94415   1.00
C3       0.63157    -0.11600   0.97829   1.00
C3       0.73263    -0.06271   0.94720   1.00
C2       0.54510    -0.21513   0.99877   1.00
C2       0.80872    -0.07770   0.92259   1.00
C3       0.56369    -0.25732   0.98817   1.00
C3       0.78011    -0.14564   0.92920   1.00
C3       0.57984    -0.14527   0.99348   1.00
C3       0.78395    -0.03800   0.93184   1.00
H1       0.62345    -0.26519   0.96619   1.00
H1       0.71277    -0.22112   0.94817   1.00
C5       0.66387    -0.04503   0.97315   1.00
C5       0.71071    -0.01960   0.95646   1.00
H1       0.53993    -0.30862   0.99123   1.00
H1       0.79637    -0.17686   0.92315   1.00
H1       0.56542    -0.11558   1.00115   1.00
H1       0.80554    0.01112    0.92702   1.00
C6       0.64872    0.00217    0.98552   1.00
C6       0.73665    0.05179    0.94837   1.00
H2       0.64873    -0.00937   1.00157   1.00
H2       0.73544    0.05018    0.93185   1.00
H2       0.69027    0.05464    0.98479   1.00
H2       0.70154    0.07011    0.95167   1.00
C6       0.58079    -0.00036   0.97915   1.00
C6       0.80916    0.10475    0.95657   1.00
H2       0.54077    -0.05338   0.97698   1.00
H2       0.84234    0.08259    0.95602   1.00
C6       0.55219    0.03424    0.99362   1.00
C6       0.84739    0.17606    0.94593   1.00
H2       0.58881    0.02327    0.96420   1.00
H2       0.80402    0.11277    0.97267   1.00
C6       0.52909    -0.00343   1.01426   1.00
C6       0.86654    0.17027    0.92372   1.00
C6       0.60528    0.11023    0.99742   1.00
C6       0.80449    0.21205    0.94618   1.00
C6       0.48873    0.03096    0.98347   1.00
C6       0.91472    0.22181    0.95762   1.00
H2       0.49238    -0.05750   1.01209   1.00
H2       0.89594    0.14406    0.92299   1.00
H2       0.57206    0.00049    1.02280   1.00
H2       0.82137    0.14218    0.91430   1.00
H2       0.50492    0.01812    1.02369   1.00
H2       0.89724    0.22055    0.91689   1.00
H2       0.58325    0.13510    1.00632   1.00
H2       0.83348    0.26362    0.94005   1.00
H2       0.64908    0.11526    1.00579   1.00
H2       0.75863    0.18431    0.93699   1.00
H2       0.62346    0.13762    0.98310   1.00
H2       0.78912    0.21551    0.96162   1.00
H2       0.44927    -0.02178   0.98065   1.00
H2       0.94731    0.19901    0.95771   1.00
H2       0.46659    0.05415    0.99309   1.00
H2       0.94354    0.27216    0.95066   1.00
H2       0.50205    0.05792    0.96899   1.00
H2       0.90450    0.22899    0.97333   1.00
C4       0.18878    0.35740    0.96579   1.00
C4       0.16000    0.30471    0.95085   1.00
C3       0.23843    0.42591    0.96092   1.00
C3       0.17341    0.31818    0.92973   1.00
C3       0.16776    0.34188    0.98649   1.00
C3       0.11594    0.23563    0.95697   1.00
C2       0.24453    0.46469    0.99584   1.00
C2       0.10453    0.19779    0.92069   1.00
C3       0.26528    0.47807    0.97543   1.00
C3       0.14686    0.26641    0.91509   1.00
C3       0.19606    0.39654    1.00079   1.00
C3       0.09025    0.18435    0.94159   1.00
H1       0.25746    0.44035    0.94667   1.00
H1       0.20243    0.36620    0.92418   1.00
C5       0.12008    0.27328    0.99247   1.00
C5       0.09827    0.21927    0.97792   1.00
H1       0.30074    0.52650    0.97093   1.00
H1       0.15868    0.27944    0.90012   1.00
H1       0.18203    0.38761    1.01562   1.00
H1       0.05914    0.13460    0.94537   1.00
C6       0.09284    0.25890    1.01396   1.00
C6       0.05759    0.14535    0.98442   1.00
H2       0.08024    0.29756    1.01850   1.00
H2       0.07772    0.11647    0.97678   1.00
H2       0.04339    0.21265    1.01484   1.00
H2       0.06650    0.13888    1.00026   1.00
C6       0.14257    0.25360    1.02943   1.00
C6       -0.02102   0.11309    0.98086   1.00
H2       0.19464    0.29487    1.02665   1.00
H2       -0.03003   0.12781    0.96589   1.00
C6       0.12716    0.25406    1.05256   1.00
C6       -0.06628   0.03376    0.98273   1.00
H2       0.14329    0.20670    1.02610   1.00
H2       -0.03988   0.13642    0.99166   1.00
C6       0.13589    0.32364    1.05929   1.00
C6       -0.05012   -0.00345   0.96574   1.00
C6       0.05436    0.19646    1.05805   1.00
C6       -0.05761   0.00799    1.00367   1.00
C6       0.17878    0.24217    1.06486   1.00
C6       -0.14223   0.01403    0.98045   1.00
H2       0.18645    0.36553    1.05532   1.00
H2       -0.05469   0.01444    0.95076   1.00
H2       0.09825    0.33338    1.05214   1.00
H2       0.00138    0.00481    0.96719   1.00
H2       0.12970    0.32508    1.07566   1.00
H2       -0.08507   -0.05838   0.96633   1.00
H2       0.04587    0.19413    1.07440   1.00
H2       -0.09291   -0.04661   1.00537   1.00
H2       0.01586    0.20493    1.05087   1.00
H2       -0.00612   0.01642    1.00549   1.00
H2       0.04638    0.14703    1.05309   1.00
H2       -0.06731   0.03443    1.01591   1.00
H2       0.23112    0.28198    1.06170   1.00
H2       -0.15129   0.03048    0.96579   1.00
H2       0.17036    0.24252    1.08116   1.00
H2       -0.17592   -0.04108   0.98152   1.00
H2       0.17416    0.19311    1.06108   1.00
H2       -0.15716   0.03767    0.99229   1.00
C4       0.16199    0.81171    0.96791   1.00
C4       0.13485    0.83799    0.95317   1.00
C3       0.23324    0.83627    0.96980   1.00
C3       0.17727    0.89533    0.94077   1.00
C3       0.11690    0.75876    0.98139   1.00
C3       0.06266    0.80643    0.95055   1.00
C2       0.21719    0.76095    0.99837   1.00
C2       0.08017    0.88913    0.92267   1.00
C3       0.26014    0.81199    0.98462   1.00
C3       0.15090    0.92000    0.92590   1.00
C3       0.14638    0.73570    0.99633   1.00
C3       0.03788    0.83288    0.93517   1.00
H1       0.26821    0.87225    0.96035   1.00
H1       0.22888    0.92175    0.94220   1.00
C5       0.04450    0.73000    0.97966   1.00
C5       0.01728    0.75032    0.96318   1.00
H1       0.31202    0.83200    0.98524   1.00
H1       0.18421    0.96138    0.91740   1.00
H1       0.11602    0.69845    1.00627   1.00
H1       -0.01311   0.81151    0.93276   1.00
C6       -0.00211   0.67926    0.99536   1.00
C6       -0.05851   0.71286    0.95881   1.00
H2       0.01936    0.69727    1.01040   1.00
H2       -0.06641   0.70462    0.94251   1.00
H2       -0.05032   0.67863    0.99645   1.00
H2       -0.08338   0.66084    0.96448   1.00
C6       -0.01678   0.60486    0.99139   1.00
C6       -0.09591   0.74974    0.96760   1.00
H2       0.03068    0.60615    0.98735   1.00
H2       -0.06575   0.80438    0.96445   1.00
C6       -0.05143   0.55148    1.00883   1.00
C6       -0.17059   0.72434    0.96027   1.00
H2       -0.04894   0.58567    0.97790   1.00
H2       -0.09641   0.74540    0.98411   1.00
C6       -0.00405   0.56932    1.02757   1.00
C6       -0.17310   0.73883    0.93738   1.00
C6       -0.11991   0.54537    1.01546   1.00
C6       -0.21769   0.64716    0.96434   1.00
C6       -0.06653   0.48065    1.00095   1.00
C6       -0.19933   0.76358    0.97221   1.00
H2       0.04520    0.57510    1.02334   1.00
H2       -0.13947   0.79277    0.93394   1.00
H2       0.00531    0.61667    1.03466   1.00
H2       -0.15750   0.70947    0.92798   1.00
H2       -0.02668   0.52942    1.03907   1.00
H2       -0.22461   0.72530    0.93274   1.00
H2       -0.14597   0.50465    1.02657   1.00
H2       -0.27054   0.63102    0.96053   1.00
H2       -0.11169   0.59255    1.02242   1.00
H2       -0.20248   0.61687    0.95521   1.00
H2       -0.15370   0.53423    1.00246   1.00
H2       -0.21575   0.63535    0.98029   1.00
H2       -0.01963   0.48198    0.99626   1.00
H2       -0.16824   0.81845    0.96968   1.00
H2       -0.09040   0.44163    1.01266   1.00
H2       -0.25137   0.74790    0.96752   1.00
H2       -0.10093   0.46456    0.98794   1.00
H2       -0.20017   0.75428    0.98848   1.00
C4       0.16557    0.36102    0.46469   1.00
C4       0.13951    0.31086    0.44897   1.00
C3       0.22721    0.37887    0.47523   1.00
C3       0.17673    0.28033    0.44125   1.00
C3       0.12920    0.39507    0.47031   1.00
C3       0.07387    0.28990    0.44046   1.00
C2       0.22005    0.46482    0.49580   1.00
C2       0.08548    0.20700    0.41788   1.00
C3       0.25390    0.42940    0.49024   1.00
C3       0.15052    0.22974    0.42625   1.00
C3       0.15831    0.44649    0.48559   1.00
C3       0.04885    0.23795    0.42529   1.00
H1       0.25468    0.35534    0.47254   1.00
H1       0.22457    0.29419    0.44608   1.00
C5       0.06540    0.37726    0.46084   1.00
C5       0.03523    0.32084    0.44701   1.00
H1       0.29872    0.44009    0.49722   1.00
H1       0.17979    0.20954    0.42138   1.00
H1       0.13419    0.47215    0.48990   1.00
H1       0.00220    0.22137    0.41897   1.00
C6       0.03119    0.41863    0.46536   1.00
C6       -0.03703   0.29314    0.43946   1.00
H2       0.06949    0.47264    0.46524   1.00
H2       -0.06353   0.23761    0.43992   1.00
H2       -0.00216   0.41568    0.45307   1.00
H2       -0.06725   0.30424    0.44995   1.00
C6       -0.01042   0.39744    0.48567   1.00
C6       -0.04070   0.32013    0.41787   1.00
H2       0.01939    0.39061    0.49752   1.00
H2       -0.00301   0.31830    0.40793   1.00
C6       -0.03515   0.44598    0.49417   1.00
C6       -0.11107   0.28379    0.40666   1.00
H2       -0.05506   0.34701    0.48341   1.00
H2       -0.02448   0.37421    0.41931   1.00
C6       0.02560    0.51567    0.50086   1.00
C6       -0.13280   0.20909    0.40108   1.00
C6       -0.07883   0.45810    0.47845   1.00
C6       -0.16793   0.28457    0.41952   1.00
C6       -0.08009   0.41210    0.51316   1.00
C6       -0.10426   0.32257    0.38658   1.00
H2       0.05809    0.50881    0.51173   1.00
H2       -0.09320   0.20671    0.39226   1.00
H2       0.05711    0.54422    0.48799   1.00
H2       -0.14261   0.17776    0.41456   1.00
H2       0.00775    0.54731    0.50805   1.00
H2       -0.17944   0.18573    0.39205   1.00
H2       -0.09983   0.48795    0.48501   1.00
H2       -0.21557   0.26352    0.41101   1.00
H2       -0.04832   0.48607    0.46533   1.00
H2       -0.17806   0.25399    0.43321   1.00
H2       -0.12117   0.40974    0.47316   1.00
H2       -0.15329   0.33648    0.42402   1.00
H2       -0.05137   0.40305    0.52486   1.00
H2       -0.06514   0.32291    0.37682   1.00
H2       -0.09827   0.44435    0.51975   1.00
H2       -0.15212   0.29878    0.37812   1.00
H2       -0.12467   0.36320    0.50933   1.00
H2       -0.09033   0.37539    0.38954   1.00
C4       0.64924    0.81230    0.46777   1.00
C4       0.70079    0.84089    0.45249   1.00
C3       0.65308    0.77439    0.48447   1.00
C3       0.76301    0.83977    0.45394   1.00
C3       0.59122    0.82138    0.46655   1.00
C3       0.69066    0.87210    0.43499   1.00
C2       0.54670    0.75731    0.49923   1.00
C2       0.80364    0.89570    0.42111   1.00
C3       0.60362    0.74798    0.49979   1.00
C3       0.81279    0.86599    0.43870   1.00
C3       0.54217    0.79399    0.48252   1.00
C3       0.74244    0.89787    0.41977   1.00
H1       0.69161    0.76396    0.48602   1.00
H1       0.77479    0.82046    0.46621   1.00
C5       0.58311    0.85661    0.44966   1.00
C5       0.63033    0.87731    0.43308   1.00
H1       0.60948    0.72134    0.51147   1.00
H1       0.85643    0.86338    0.44062   1.00
H1       0.50047    0.79980    0.48226   1.00
H1       0.73687    0.92000    0.40705   1.00
C6       0.52537    0.87214    0.44965   1.00
C6       0.61693    0.90382    0.41355   1.00
H2       0.52170    0.89042    0.46462   1.00
H2       0.62848    0.88088    0.40074   1.00
H2       0.53698    0.91597    0.44020   1.00
H2       0.56285    0.88508    0.41133   1.00
C6       0.45555    0.81022    0.44272   1.00
C6       0.65649    0.98362    0.41217   1.00
H2       0.44810    0.76364    0.45003   1.00
H2       0.70905    1.00354    0.41725   1.00
C6       0.38977    0.81502    0.44638   1.00
C6       0.65875    1.01637    0.39106   1.00
H2       0.45926    0.80248    0.42652   1.00
H2       0.63381    1.00258    0.42316   1.00
C6       0.37458    0.81512    0.46932   1.00
C6       0.70001    1.00086    0.37528   1.00
C6       0.39516    0.87935    0.43630   1.00
C6       0.58618    0.99173    0.38268   1.00
C6       0.32815    0.75147    0.43676   1.00
C6       0.69488    1.09498    0.39367   1.00
H2       0.37156    0.77087    0.47694   1.00
H2       0.75119    1.01665    0.38089   1.00
H2       0.41396    0.86074    0.47681   1.00
H2       0.67513    0.94667    0.37177   1.00
H2       0.32619    0.81369    0.47170   1.00
H2       0.70530    1.02775    0.36106   1.00
H2       0.34730    0.87969    0.43769   1.00
H2       0.58819    1.01849    0.36870   1.00
H2       0.43483    0.92566    0.44347   1.00
H2       0.56013    0.93738    0.37925   1.00
H2       0.40726    0.88126    0.42021   1.00
H2       0.55557    1.00076    0.39368   1.00
H2       0.32162    0.70453    0.44352   1.00
H2       0.74674    1.11513    0.39937   1.00
H2       0.28080    0.75226    0.43904   1.00
H2       0.69812    1.12025    0.37927   1.00
H2       0.33521    0.74927    0.42046   1.00
H2       0.66734    1.10927    0.40435   1.00
C4       0.18897    -0.16862   0.46573   1.00
C4       0.16303    -0.14477   0.44992   1.00
C3       0.15885    -0.18579   0.48539   1.00
C3       0.10116    -0.14324   0.45195   1.00
C3       0.24730    -0.17580   0.46204   1.00
C3       0.19963    -0.12147   0.43123   1.00
C2       0.23934    -0.22004   0.49743   1.00
C2       0.11224    -0.09342   0.41832   1.00
C3       0.18296    -0.21105   0.50075   1.00
C3       0.07662    -0.11806   0.43669   1.00
C3       0.27003    -0.20205   0.47805   1.00
C3       0.17309    -0.09586   0.41612   1.00
H1       0.11867    -0.17995   0.48935   1.00
H1       0.07126    -0.16099   0.46451   1.00
C5       0.28154    -0.15663   0.44283   1.00
C5       0.26071    -0.12444   0.42797   1.00
H1       0.15881    -0.22275   0.51457   1.00
H1       0.03181    -0.11807   0.43913   1.00
H1       0.31105    -0.20831   0.47595   1.00
H1       0.19791    -0.07841   0.40269   1.00
C6       0.33859    -0.17127   0.43840   1.00
C6       0.30273    -0.09296   0.40904   1.00
H2       0.32363    -0.22249   0.44366   1.00
H2       0.30670    -0.04361   0.40637   1.00
H2       0.34463    -0.17566   0.42221   1.00
H2       0.35583    -0.07852   0.41129   1.00
C6       0.40887    -0.11668   0.44754   1.00
C6       0.27458    -0.14039   0.38997   1.00
H2       0.40146    -0.10462   0.46306   1.00
H2       0.21918    -0.16312   0.38926   1.00
C6       0.46762    -0.13412   0.44787   1.00
C6       0.30432    -0.10791   0.36877   1.00
H2       0.42651    -0.06942   0.43902   1.00
H2       0.28337    -0.18316   0.39226   1.00
C6       0.45111    -0.19444   0.46236   1.00
C6       0.28452    -0.05377   0.36285   1.00
C6       0.48254    -0.15119   0.42639   1.00
C6       0.38295    -0.07495   0.36820   1.00
C6       0.53349    -0.07092   0.45579   1.00
C6       0.27392    -0.16509   0.35249   1.00
H2       0.43923    -0.18444   0.47759   1.00
H2       0.22932    -0.07516   0.36343   1.00
H2       0.40766    -0.24170   0.45700   1.00
H2       0.30776    -0.00993   0.37297   1.00
H2       0.49423    -0.20312   0.46357   1.00
H2       0.30140    -0.03488   0.34749   1.00
H2       0.52668    -0.15847   0.42656   1.00
H2       0.40267    -0.05682   0.35298   1.00
H2       0.43933    -0.19805   0.42066   1.00
H2       0.40719    -0.03131   0.37841   1.00
H2       0.49292    -0.11013   0.41579   1.00
H2       0.39834    -0.11163   0.37273   1.00
H2       0.52592    -0.05711   0.47105   1.00
H2       0.21838    -0.18962   0.35212   1.00
H2       0.57599    -0.08077   0.45643   1.00
H2       0.29287    -0.14480   0.33737   1.00
H2       0.54860    -0.02690   0.44595   1.00
H2       0.28734    -0.20426   0.35561   1.00
C4       0.34963    0.15984    0.03190   1.00
C4       0.29730    0.13633    0.04695   1.00
C3       0.36126    0.11434    0.01988   1.00
C3       0.24849    0.06594    0.04957   1.00
C3       0.39253    0.23141    0.02856   1.00
C3       0.29278    0.18434    0.06001   1.00
C2       0.45324    0.20721    0.00076   1.00
C2       0.19352    0.08843    0.07805   1.00
C3       0.41121    0.13716    0.00471   1.00
C3       0.19836    0.04256    0.06469   1.00
C3       0.44257    0.25255    0.01288   1.00
C3       0.24120    0.15842    0.07529   1.00
H1       0.33431    0.06293    0.02182   1.00
H1       0.24711    0.02906    0.04045   1.00
C5       0.38516    0.27976    0.04076   1.00
C5       0.33868    0.25608    0.05755   1.00
H1       0.41686    0.10174    -0.00350   1.00
H1       0.16484    -0.00888   0.06584   1.00
H1       0.47372    0.30299    0.00996   1.00
H1       0.23667    0.19092    0.08495   1.00
C6       0.42587    0.35494    0.03564   1.00
C6       0.33803    0.30572    0.07281   1.00
H2       0.42476    0.36121    0.01928   1.00
H2       0.33470    0.28561    0.08805   1.00
H2       0.40100    0.38233    0.04111   1.00
H2       0.38680    0.35284    0.07339   1.00
C6       0.50071    0.39056    0.04398   1.00
C6       0.28022    0.32318    0.06879   1.00
H2       0.52289    0.35818    0.04108   1.00
H2       0.23265    0.27643    0.06526   1.00
C6       0.55182    0.46373    0.03589   1.00
C6       0.26488    0.36149    0.08593   1.00
H2       0.49816    0.39311    0.06048   1.00
H2       0.29346    0.35394    0.05499   1.00
C6       0.56688    0.46291    0.01297   1.00
C6       0.23514    0.31657    0.10513   1.00
C6       0.52507    0.51383    0.03957   1.00
C6       0.32945    0.42925    0.09182   1.00
C6       0.62032    0.49116    0.04747   1.00
C6       0.21072    0.37876    0.07798   1.00
H2       0.58482    0.42714    0.00982   1.00
H2       0.19008    0.26783    0.10142   1.00
H2       0.52163    0.44809    0.00378   1.00
H2       0.27223    0.30594    0.11225   1.00
H2       0.60606    0.51323    0.00780   1.00
H2       0.22022    0.34185    0.11644   1.00
H2       0.56312    0.56567    0.03521   1.00
H2       0.31722    0.45787    0.10271   1.00
H2       0.47932    0.49946    0.03064   1.00
H2       0.36753    0.41972    0.09881   1.00
H2       0.51271    0.51431    0.05554   1.00
H2       0.35223    0.46125    0.07849   1.00
H2       0.64182    0.45792    0.04520   1.00
H2       0.16370    0.33248    0.07379   1.00
H2       0.65794    0.54210    0.04225   1.00
H2       0.19794    0.40523    0.08948   1.00
H2       0.61328    0.49426    0.06373   1.00
H2       0.22930    0.41160    0.06463   1.00
C4       0.81173    0.64971    0.03209   1.00
C4       0.84044    0.70152    0.04730   1.00
C3       0.76690    0.64894    0.01679   1.00
C3       0.83214    0.75988    0.04702   1.00
C3       0.82783    0.59617    0.03196   1.00
C3       0.87917    0.69564    0.06350   1.00
C2       0.75629    0.54684    0.00073   1.00
C2       0.89564    0.80465    0.07859   1.00
C3       0.74023    0.59933    0.00152   1.00
C3       0.85856    0.80976    0.06222   1.00
C3       0.79991    0.54683    0.01607   1.00
C3       0.90489    0.74735    0.07874   1.00
H1       0.75139    0.68400    0.01629   1.00
H1       0.80717    0.76868    0.03566   1.00
C5       0.87038    0.59262    0.04746   1.00
C5       0.89168    0.63951    0.06414   1.00
H1       0.70839    0.60177    -0.00912   1.00
H1       0.85057    0.85049    0.06119   1.00
H1       0.81055    0.50826    0.01539   1.00
H1       0.93228    0.74471    0.09058   1.00
C6       0.89285    0.54005    0.04591   1.00
C6       0.92643    0.63006    0.08246   1.00
H2       0.90809    0.53843    0.03034   1.00
H2       0.90485    0.63856    0.09617   1.00
H2       0.94014    0.55591    0.05408   1.00
H2       0.91330    0.57718    0.08430   1.00
C6       0.83759    0.46765    0.05358   1.00
C6       1.00602    0.67608    0.08192   1.00
H2       0.78759    0.45542    0.04771   1.00
H2       1.01974    0.72763    0.07716   1.00
C6       0.84867    0.40628    0.04859   1.00
C6       1.04606    0.68206    0.10190   1.00
H2       0.83373    0.47048    0.07003   1.00
H2       1.02515    0.65670    0.06995   1.00
C6       0.84385    0.39173    0.02548   1.00
C6       1.02990    0.71935    0.11886   1.00
C6       0.91825    0.41856    0.05659   1.00
C6       1.03051    0.61121    0.10973   1.00
C6       0.79158    0.34145    0.05913   1.00
C6       1.12363    0.72468    0.09736   1.00
H2       0.79571    0.38392    0.01929   1.00
H2       1.03929    0.76914    0.11369   1.00
H2       0.88518    0.43370    0.01722   1.00
H2       0.97691    0.69002    0.12369   1.00
H2       0.84690    0.34604    0.02227   1.00
H2       1.06151    0.72746    0.13222   1.00
H2       0.92337    0.37358    0.05433   1.00
H2       1.06228    0.61622    0.12280   1.00
H2       0.96035    0.46088    0.04865   1.00
H2       0.97745    0.58077    0.11446   1.00
H2       0.92354    0.43034    0.07276   1.00
H2       1.04011    0.58330    0.09792   1.00
H2       0.74127    0.33005    0.05384   1.00
H2       1.13749    0.77559    0.09196   1.00
H2       0.79687    0.29698    0.05598   1.00
H2       1.15383    0.73068    0.11092   1.00
H2       0.79319    0.34805    0.07556   1.00
H2       1.13851    0.70023    0.08576   1.00
C4       -0.16862   0.18899    0.03427   1.00
C4       -0.14477   0.16305    0.05009   1.00
C3       -0.18594   0.15876    0.01463   1.00
C3       -0.14337   0.10111    0.04808   1.00
C3       -0.17565   0.24741    0.03795   1.00
C3       -0.12131   0.19973    0.06875   1.00
C2       -0.22005   0.23935    0.00257   1.00
C2       -0.09341   0.11226    0.08169   1.00
C3       -0.21120   0.18287    -0.00073   1.00
C3       -0.11819   0.07656    0.06333   1.00
C3       -0.20191   0.27013    0.02194   1.00
C3       -0.09571   0.17320    0.08386   1.00
H1       -0.18021   0.11851    0.01068   1.00
H1       -0.16123   0.07115    0.03553   1.00
C5       -0.15633   0.28174    0.05715   1.00
C5       -0.12414   0.26090    0.07200   1.00
H1       -0.22301   0.15865    -0.01454   1.00
H1       -0.11831   0.03170    0.06091   1.00
H1       -0.20807   0.31122    0.02403   1.00
H1       -0.07815   0.19808    0.09728   1.00
C6       -0.17081   0.33890    0.06156   1.00
C6       -0.09250   0.30300    0.09090   1.00
H2       -0.22203   0.32401    0.05632   1.00
H2       -0.04318   0.30689    0.09356   1.00
H2       -0.17510   0.34505    0.07775   1.00
H2       -0.07798   0.35611    0.08863   1.00
C6       -0.11619   0.40910    0.05238   1.00
C6       -0.13984   0.27502    0.11000   1.00
H2       -0.10423   0.40157    0.03686   1.00
H2       -0.16266   0.21961    0.11073   1.00
C6       -0.13349   0.46794    0.05203   1.00
C6       -0.10722   0.30483    0.13118   1.00
H2       -0.06889   0.42671    0.06088   1.00
H2       -0.18256   0.28390    0.10772   1.00
C6       -0.19385   0.45146    0.03757   1.00
C6       -0.05315   0.28493    0.13709   1.00
C6       -0.15039   0.48302    0.07352   1.00
C6       -0.07413   0.38348    0.13171   1.00
C6       -0.07025   0.53371    0.04408   1.00
C6       -0.16432   0.27461    0.14749   1.00
H2       -0.18397   0.43948    0.02234   1.00
H2       -0.07464   0.22971    0.13653   1.00
H2       -0.24113   0.40810    0.04296   1.00
H2       -0.00936   0.30806    0.12694   1.00
H2       -0.20244   0.49464    0.03635   1.00
H2       -0.03416   0.30187    0.15244   1.00
H2       -0.15757   0.52723    0.07334   1.00
H2       -0.05589   0.40326    0.14692   1.00
H2       -0.19727   0.43989    0.07928   1.00
H2       -0.03053   0.40761    0.12149   1.00
H2       -0.10929   0.49339    0.08411   1.00
H2       -0.11076   0.39894    0.12719   1.00
H2       -0.05656   0.52602    0.02882   1.00
H2       -0.18893   0.21906    0.14789   1.00
H2       -0.08001   0.57627    0.04343   1.00
H2       -0.14393   0.29361    0.16260   1.00
H2       -0.02619   0.54879    0.05390   1.00
H2       -0.20344   0.28811    0.14437   1.00
C4       0.50422    0.97220    0.86868   1.00
C4       0.52725    1.02247    0.88436   1.00
C3       0.54744    0.95061    0.85965   1.00
C3       0.59265    1.04934    0.89356   1.00
C3       0.43551    0.94190    0.86155   1.00
C3       0.48387    1.04732    0.89131   1.00
C2       0.45675    0.86815    0.83768   1.00
C2       0.57522    1.12654    0.91536   1.00
C3       0.52447    0.89995    0.84470   1.00
C3       0.61615    1.10002    0.90852   1.00
C3       0.41400    0.89021    0.84638   1.00
C3       0.50987    1.09923    0.90649   1.00
H1       0.59744    0.97137    0.86346   1.00
H1       0.62540    1.03260    0.88988   1.00
C5       0.39042    0.96360    0.86946   1.00
C5       0.41640    1.02016    0.88322   1.00
H1       0.55810    0.88646    0.83885   1.00
H1       0.66394    1.11747    0.91449   1.00
H1       0.36540    0.86714    0.84102   1.00
H1       0.48072    1.11852    0.91172   1.00
C6       0.31597    0.92611    0.86337   1.00
C6       0.37385    1.05197    0.88913   1.00
H2       0.29700    0.87141    0.86377   1.00
H2       0.40579    1.10730    0.88874   1.00
H2       0.28412    0.93138    0.87473   1.00
H2       0.33586    1.04330    0.87766   1.00
C6       0.30265    0.94925    0.84228   1.00
C6       0.33741    1.02640    0.91014   1.00
H2       0.34109    0.95364    0.83140   1.00
H2       0.37315    1.02562    0.92113   1.00
C6       0.23086    0.90416    0.83238   1.00
C6       0.30472    1.06642    0.91987   1.00
H2       0.31130    1.00097    0.84401   1.00
H2       0.29755    0.97317    0.90836   1.00
C6       0.21885    0.83273    0.82639   1.00
C6       0.35961    1.13994    0.92592   1.00
C6       0.17273    0.89567    0.84664   1.00
C6       0.25237    1.06954    0.90543   1.00
C6       0.22713    0.93978    0.81269   1.00
C6       0.26655    1.02877    0.93949   1.00
H2       0.25966    0.83697    0.81658   1.00
H2       0.39800    1.13954    0.93586   1.00
H2       0.21663    0.80314    0.83968   1.00
H2       0.38567    1.17068    0.91267   1.00
H2       0.17078    0.80345    0.81826   1.00
H2       0.33681    1.16577    0.93395   1.00
H2       0.12333    0.86833    0.83907   1.00
H2       0.22636    1.09322    0.91288   1.00
H2       0.17010    0.86671    0.86016   1.00
H2       0.27740    1.09959    0.89195   1.00
H2       0.18073    0.94526    0.85143   1.00
H2       0.21393    1.01848    0.90059   1.00
H2       0.26676    0.94638    0.80198   1.00
H2       0.30145    1.02578    0.95032   1.00
H2       0.17796    0.90993    0.80514   1.00
H2       0.24316    1.05509    0.94693   1.00
H2       0.23387    0.99002    0.81598   1.00
H2       0.22613    0.97688    0.93615   1.00
C4       0.01742    0.52103    0.86556   1.00
C4       -0.03608   0.49440    0.88027   1.00
C3       0.06933    0.50296    0.86524   1.00
C3       -0.04555   0.44256    0.89432   1.00
C3       0.01998    0.56766    0.85048   1.00
C3       -0.08242   0.51991    0.88117   1.00
C2       0.12373    0.57224    0.83520   1.00
C2       -0.14219   0.44287    0.91068   1.00
C3       0.12071    0.52745    0.85049   1.00
C3       -0.09672   0.41774    0.90914   1.00
C3       0.07293    0.59112    0.83566   1.00
C3       -0.13362   0.49355    0.89656   1.00
H1       0.07215    0.47186    0.87585   1.00
H1       -0.01604   0.42040    0.89418   1.00
C5       -0.02920   0.58995    0.85053   1.00
C5       -0.07722   0.57005    0.86688   1.00
H1       0.15650    0.51227    0.85105   1.00
H1       -0.10070   0.38052    0.91888   1.00
H1       0.07616    0.62395    0.82461   1.00
H1       -0.16722   0.51076    0.89777   1.00
C6       -0.03027   0.63348    0.83326   1.00
C6       -0.12185   0.60182    0.86935   1.00
H2       -0.02431   0.61289    0.81896   1.00
H2       -0.12275   0.61406    0.88529   1.00
H2       -0.08035   0.62827    0.83141   1.00
H2       -0.09906   0.65197    0.86238   1.00
C6       0.02407    0.71095    0.83564   1.00
C6       -0.19563   0.55637    0.86068   1.00
H2       0.07268    0.71619    0.84043   1.00
H2       -0.21526   0.50339    0.86527   1.00
C6       0.03808    0.75813    0.81677   1.00
C6       -0.25046   0.57643    0.86634   1.00
H2       0.00799    0.73110    0.84821   1.00
H2       -0.19175   0.55630    0.84416   1.00
C6       0.07153    0.73970    0.79919   1.00
C6       -0.26716   0.56727    0.88934   1.00
C6       -0.02807   0.75481    0.80899   1.00
C6       -0.22747   0.65085    0.86014   1.00
C6       0.08853    0.83289    0.82310   1.00
C6       -0.31729   0.52863    0.85471   1.00
H2       0.11782    0.74049    0.80429   1.00
H2       -0.28250   0.51550    0.89426   1.00
H2       0.03706    0.68914    0.79314   1.00
H2       -0.22338   0.60248    0.89840   1.00
H2       0.08541    0.77577    0.78667   1.00
H2       -0.30872   0.57680    0.89289   1.00
H2       -0.01703   0.79145    0.79678   1.00
H2       -0.26797   0.66274    0.86282   1.00
H2       -0.06358   0.70432    0.80304   1.00
H2       -0.18321   0.68692    0.86892   1.00
H2       -0.05340   0.76619    0.82119   1.00
H2       -0.21403   0.65906    0.84410   1.00
H2       0.13652    0.83821    0.82853   1.00
H2       -0.33615   0.47535    0.85870   1.00
H2       0.10029    0.86784    0.81036   1.00
H2       -0.35739   0.54038    0.85827   1.00
H2       0.06721    0.84941    0.83521   1.00
H2       -0.30912   0.53379    0.83833   1.00
C4       0.47810    0.49487    0.86537   1.00
C4       0.50423    0.46763    0.88012   1.00
C3       0.50516    0.56631    0.86278   1.00
C3       0.56363    0.50973    0.89182   1.00
C3       0.42273    0.44969    0.85260   1.00
C3       0.47039    0.39564    0.88349   1.00
C2       0.42751    0.55009    0.83487   1.00
C2       0.55521    0.41292    0.91066   1.00
C3       0.48096    0.59321    0.84794   1.00
C3       0.58825    0.48338    0.90670   1.00
C3       0.39982    0.47915    0.83760   1.00
C3       0.49687    0.37088    0.89886   1.00
H1       0.54302    0.60147    0.87172   1.00
H1       0.59164    0.56107    0.88982   1.00
C5       0.39150    0.37725    0.85505   1.00
C5       0.41203    0.35042    0.87159   1.00
H1       0.50282    0.64522    0.84680   1.00
H1       0.63118    0.51648    0.91467   1.00
H1       0.36087    0.44869    0.82814   1.00
H1       0.47394    0.32006    0.90180   1.00
C6       0.33794    0.33014    0.84006   1.00
C6       0.37247    0.27523    0.87677   1.00
H2       0.35470    0.34944    0.82475   1.00
H2       0.36604    0.26950    0.89317   1.00
H2       0.33493    0.28076    0.83933   1.00
H2       0.31989    0.25161    0.87164   1.00
C6       0.26519    0.31917    0.84463   1.00
C6       0.40562    0.23419    0.86802   1.00
H2       0.26916    0.36811    0.84830   1.00
H2       0.46069    0.26279    0.87057   1.00
C6       0.20941    0.28421    0.82782   1.00
C6       0.37824    0.15993    0.87607   1.00
H2       0.24659    0.28881    0.85848   1.00
H2       0.39937    0.23192    0.85156   1.00
C6       0.22676    0.32956    0.80862   1.00
C6       0.39502    0.15941    0.89886   1.00
C6       0.19943    0.21369    0.82175   1.00
C6       0.30029    0.11497    0.87287   1.00
C6       0.14058    0.27309    0.83628   1.00
C6       0.41371    0.12725    0.86409   1.00
H2       0.23521    0.38014    0.81245   1.00
H2       0.44961    0.19162    0.90168   1.00
H2       0.27251    0.33602    0.80115   1.00
H2       0.36825    0.17787    0.90833   1.00
H2       0.18540    0.30695    0.79757   1.00
H2       0.37997    0.10794    0.90397   1.00
H2       0.15717    0.18767    0.81111   1.00
H2       0.28253    0.06217    0.87718   1.00
H2       0.24499    0.21902    0.81442   1.00
H2       0.27256    0.13306    0.88208   1.00
H2       0.18856    0.18124    0.83506   1.00
H2       0.28693    0.11561    0.85700   1.00
H2       0.14465    0.32154    0.84061   1.00
H2       0.46898    0.15672    0.86602   1.00
H2       0.10000    0.24915    0.82502   1.00
H2       0.39655    0.07535    0.86927   1.00
H2       0.12485    0.24024    0.84964   1.00
H2       0.40264    0.12489    0.84790   1.00
C4       0.30556    0.16824    0.29799   1.00
C4       0.35638    0.19106    0.28249   1.00
C3       0.26798    0.20187    0.30224   1.00
C3       0.36814    0.24451    0.26878   1.00
C3       0.29115    0.10970    0.30987   1.00
C3       0.39742    0.15975    0.28037   1.00
C2       0.20043    0.12018    0.32867   1.00
C2       0.46139    0.23952    0.25176   1.00
C3       0.21677    0.17848    0.31704   1.00
C3       0.41923    0.26832    0.25394   1.00
C3       0.23835    0.08730    0.32471   1.00
C3       0.44916    0.18575    0.26513   1.00
H1       0.27688    0.24502    0.29489   1.00
H1       0.33957    0.26769    0.26893   1.00
C5       0.32927    0.07541    0.30687   1.00
C5       0.38605    0.10381    0.29317   1.00
H1       0.19134    0.20485    0.31931   1.00
H1       0.42531    0.30721    0.24457   1.00
H1       0.22631    0.04560    0.33336   1.00
H1       0.47967    0.16512    0.26325   1.00
C6       0.30865    0.00942    0.31801   1.00
C6       0.43448    0.07601    0.29221   1.00
H2       0.25335    -0.02265   0.31747   1.00
H2       0.48670    0.11848    0.29162   1.00
H2       0.32498    -0.02188   0.30998   1.00
H2       0.43474    0.05133    0.30632   1.00
C6       0.33613    0.02060    0.34032   1.00
C6       0.41881    0.02495    0.27424   1.00
H2       0.32869    0.05973    0.34763   1.00
H2       0.40863    0.04528    0.26047   1.00
C6       0.30589    -0.04303   0.35466   1.00
C6       0.47389    0.00481    0.26900   1.00
H2       0.39135    0.04214    0.33960   1.00
H2       0.37102    -0.02161   0.27768   1.00
C6       0.22928    -0.07035   0.35914   1.00
C6       0.54031    0.06652    0.26078   1.00
C6       0.31486    -0.10126   0.34566   1.00
C6       0.49117    -0.02551   0.28762   1.00
C6       0.34460    -0.02142   0.37519   1.00
C6       0.44513    -0.05038   0.25211   1.00
H2       0.22108    -0.03013   0.36521   1.00
H2       0.52968    0.08979    0.24782   1.00
H2       0.19835    -0.09037   0.34552   1.00
H2       0.56557    0.10565    0.27233   1.00
H2       0.20988    -0.11163   0.37023   1.00
H2       0.57655    0.05098    0.25586   1.00
H2       0.29808    -0.14337   0.35639   1.00
H2       0.52587    -0.04385   0.28346   1.00
H2       0.28479    -0.12157   0.33187   1.00
H2       0.51592    0.01275    0.29945   1.00
H2       0.36821    -0.08299   0.34197   1.00
H2       0.44505    -0.06818   0.29396   1.00
H2       0.33929    0.01922    0.38231   1.00
H2       0.43274    -0.03127   0.23851   1.00
H2       0.32495    -0.06414   0.38579   1.00
H2       0.48202    -0.06582   0.24783   1.00
H2       0.39889    -0.00291   0.37308   1.00
H2       0.39885    -0.09589   0.25716   1.00
C4       0.86802    0.69324    0.29833   1.00
C4       0.84204    0.64344    0.28251   1.00
C3       0.91337    0.69439    0.31351   1.00
C3       0.86505    0.59590    0.27952   1.00
C3       0.84836    0.74416    0.29925   1.00
C3       0.79114    0.64037    0.26902   1.00
C2       0.92323    0.79594    0.32974   1.00
C2       0.78714    0.54053    0.25116   1.00
C3       0.94047    0.74431    0.32869   1.00
C3       0.83828    0.54576    0.26440   1.00
C3       0.87741    0.79432    0.31489   1.00
C3       0.76493    0.58830    0.25389   1.00
H1       0.92788    0.65860    0.31423   1.00
H1       0.90262    0.59637    0.28808   1.00
C5       0.80064    0.74391    0.28490   1.00
C5       0.76802    0.68869    0.27075   1.00
H1       0.97314    0.74249    0.33915   1.00
H1       0.85686    0.51282    0.26307   1.00
H1       0.86503    0.83163    0.31596   1.00
H1       0.72837    0.58419    0.24409   1.00
C6       0.78593    0.80219    0.28472   1.00
C6       0.70910    0.68037    0.25780   1.00
H2       0.83376    0.85018    0.28627   1.00
H2       0.66944    0.62683    0.25771   1.00
H2       0.76841    0.80822    0.26993   1.00
H2       0.68267    0.70416    0.26476   1.00
C6       0.73270    0.79480    0.30119   1.00
C6       0.73102    0.70900    0.23575   1.00
H2       0.74447    0.77891    0.31557   1.00
H2       0.76594    0.69322    0.22969   1.00
C6       0.72483    0.85853    0.30547   1.00
C6       0.67312    0.68988    0.21975   1.00
H2       0.68302    0.75259    0.29665   1.00
H2       0.76105    0.76454    0.23679   1.00
C6       0.79025    0.91765    0.31510   1.00
C6       0.63469    0.61245    0.21493   1.00
C6       0.70717    0.88442    0.28591   1.00
C6       0.62126    0.71116    0.22691   1.00
C6       0.66561    0.83782    0.32080   1.00
C6       0.70598    0.72849    0.19972   1.00
H2       0.80474    0.90071    0.32877   1.00
H2       0.67006    0.59558    0.21014   1.00
H2       0.83313    0.93761    0.30462   1.00
H2       0.60682    0.58231    0.22809   1.00
H2       0.78264    0.95998    0.31932   1.00
H2       0.59770    0.60039    0.20277   1.00
H2       0.69700    0.92570    0.28930   1.00
H2       0.58396    0.70208    0.21507   1.00
H2       0.74925    0.90403    0.27513   1.00
H2       0.59327    0.68200    0.24021   1.00
H2       0.66208    0.84338    0.27860   1.00
H2       0.64719    0.76520    0.23082   1.00
H2       0.67589    0.81978    0.33500   1.00
H2       0.74261    0.71470    0.19389   1.00
H2       0.65840    0.88087    0.32438   1.00
H2       0.66752    0.71641    0.18800   1.00
H2       0.61762    0.79711    0.31469   1.00
H2       0.73277    0.78358    0.20205   1.00
C4       0.82565    0.13220    0.29827   1.00
C4       0.80194    0.15832    0.28247   1.00
C3       0.78084    0.08421    0.31284   1.00
C3       0.73127    0.13305    0.27882   1.00
C3       0.89674    0.15444    0.29982   1.00
C3       0.85002    0.21170    0.26964   1.00
C2       0.87308    0.07681    0.32964   1.00
C2       0.75398    0.21339    0.25114   1.00
C3       0.80366    0.05703    0.32800   1.00
C3       0.70790    0.15988    0.26372   1.00
C3       0.91785    0.12523    0.31541   1.00
C3       0.82413    0.23787    0.25451   1.00
H1       0.73004    0.06771    0.31311   1.00
H1       0.69410    0.09373    0.28688   1.00
C5       0.94468    0.20479    0.28612   1.00
C5       0.92173    0.23726    0.27202   1.00
H1       0.76872    0.02239    0.33799   1.00
H1       0.65628    0.13960    0.26191   1.00
H1       0.96791    0.13940    0.31691   1.00
H1       0.85673    0.27614    0.24519   1.00
C6       1.01859    0.22244    0.28655   1.00
C6       0.97220    0.29853    0.25982   1.00
H2       1.02076    0.17557    0.28779   1.00
H2       0.95625    0.33665    0.25989   1.00
H2       1.04353    0.24230    0.27205   1.00
H2       1.02151    0.32578    0.26730   1.00
C6       1.06112    0.27456    0.30367   1.00
C6       0.98257    0.27997    0.23770   1.00
H2       1.03177    0.26019    0.31777   1.00
H2       0.93306    0.24431    0.23106   1.00
C6       1.13341    0.28495    0.30850   1.00
C6       1.02136    0.34006    0.22236   1.00
H2       1.06702    0.32393    0.29951   1.00
H2       1.00986    0.25166    0.23872   1.00
C6       1.12885    0.21969    0.31767   1.00
C6       0.98034    0.37640    0.21751   1.00
C6       1.17931    0.30639    0.28939   1.00
C6       1.09290    0.39314    0.23036   1.00
C6       1.16831    0.34273    0.32447   1.00
C6       1.03100    0.31054    0.20217   1.00
H2       1.09585    0.20258    0.33101   1.00
H2       0.92913    0.34008    0.21213   1.00
H2       1.10857    0.17801    0.30676   1.00
H2       0.97526    0.40199    0.23082   1.00
H2       1.17902    0.22886    0.32228   1.00
H2       1.00550    0.41503    0.20577   1.00
H2       1.23101    0.31822    0.29320   1.00
H2       1.12137    0.43217    0.21897   1.00
H2       1.15948    0.26553    0.27818   1.00
H2       1.08892    0.41889    0.24382   1.00
H2       1.18223    0.35143    0.28239   1.00
H2       1.12235    0.36863    0.23430   1.00
H2       1.13824    0.32980    0.33839   1.00
H2       0.98184    0.27319    0.19575   1.00
H2       1.21891    0.35160    0.32846   1.00
H2       1.05753    0.35061    0.19089   1.00
H2       1.17426    0.39062    0.31873   1.00
H2       1.06086    0.28537    0.20453   1.00
C4       0.82250    0.68299    0.80141   1.00
C4       0.79779    0.62981    0.78660   1.00
C3       0.78756    0.71893    0.80615   1.00
C3       0.73302    0.60404    0.77707   1.00
C3       0.88452    0.70168    0.81201   1.00
C3       0.83867    0.60063    0.78095   1.00
C2       0.87067    0.78824    0.83205   1.00
C2       0.74917    0.52461    0.75594   1.00
C3       0.81061    0.76972    0.82106   1.00
C3       0.70949    0.55329    0.76213   1.00
C3       0.90605    0.75342    0.82717   1.00
C3       0.81301    0.54930    0.76559   1.00
H1       0.74440    0.71002    0.79879   1.00
H1       0.70022    0.62070    0.78078   1.00
C5       0.92344    0.66931    0.80730   1.00
C5       0.90307    0.62246    0.79063   1.00
H1       0.78294    0.79354    0.82382   1.00
H1       0.66242    0.53709    0.75578   1.00
H1       0.94963    0.76779    0.83512   1.00
H1       0.84080    0.52766    0.76107   1.00
C6       0.98495    0.68438    0.82009   1.00
C6       0.94896    0.59644    0.78299   1.00
H2       0.97236    0.68439    0.83604   1.00
H2       0.94964    0.59765    0.76647   1.00
H2       0.99584    0.64278    0.81960   1.00
H2       1.00217    0.63150    0.78657   1.00
C6       1.05080    0.75226    0.81396   1.00
C6       0.92878    0.52391    0.79132   1.00
H2       1.03802    0.79233    0.81154   1.00
H2       0.87347    0.49078    0.79047   1.00
C6       1.11304    0.78079    0.82881   1.00
C6       0.96246    0.48559    0.78108   1.00
H2       1.06736    0.74421    0.79917   1.00
H2       0.94088    0.52902    0.80749   1.00
C6       1.09717    0.80393    0.84924   1.00
C6       0.93896    0.46647    0.75876   1.00
C6       1.13558    0.72763    0.83299   1.00
C6       1.04132    0.52841    0.78178   1.00
C6       1.17392    0.84421    0.81888   1.00
C6       0.94003    0.41825    0.79286   1.00
H2       1.08002    0.84069    0.84679   1.00
H2       0.88340    0.43712    0.75771   1.00
H2       1.05753    0.76098    0.85764   1.00
H2       0.95671    0.51164    0.74930   1.00
H2       1.14227    0.82805    0.85892   1.00
H2       0.95892    0.43571    0.75220   1.00
H2       1.18189    0.74961    0.84216   1.00
H2       1.06424    0.49937    0.77593   1.00
H2       1.09624    0.68386    0.84122   1.00
H2       1.06010    0.57428    0.77255   1.00
H2       1.14569    0.70942    0.81881   1.00
H2       1.05915    0.54377    0.79729   1.00
H2       1.16090    0.88371    0.81580   1.00
H2       0.88464    0.38572    0.79265   1.00
H2       1.21861    0.86629    0.82876   1.00
H2       0.96195    0.38937    0.78618   1.00
H2       1.18848    0.83086    0.80456   1.00
H2       0.95640    0.42845    0.80867   1.00
C4       0.30730    0.13153    0.79849   1.00
C4       0.35928    0.15568    0.78331   1.00
C3       0.24697    0.13583    0.79625   1.00
C3       0.35141    0.17916    0.76400   1.00
C3       0.31512    0.10188    0.81671   1.00
C3       0.42182    0.15666    0.78733   1.00
C2       0.20060    0.07968    0.82872   1.00
C2       0.46567    0.20766    0.75298   1.00
C3       0.19503    0.11043    0.81083   1.00
C3       0.40303    0.20469    0.74931   1.00
C3       0.26087    0.07628    0.83114   1.00
C3       0.47326    0.18342    0.77201   1.00
H1       0.23882    0.15820    0.78402   1.00
H1       0.30762    0.17795    0.75980   1.00
C5       0.37600    0.09873    0.82021   1.00
C5       0.43160    0.13103    0.80617   1.00
H1       0.15266    0.11484    0.80827   1.00
H1       0.39428    0.22110    0.73571   1.00
H1       0.26435    0.05443    0.84422   1.00
H1       0.51858    0.18539    0.77436   1.00
C6       0.38048    0.06078    0.83852   1.00
C6       0.50057    0.13906    0.81108   1.00
H2       0.33262    0.01284    0.84010   1.00
H2       0.54028    0.19032    0.80692   1.00
H2       0.41652    0.04301    0.83611   1.00
H2       0.50838    0.13898    0.82734   1.00
C6       0.39988    0.10393    0.85852   1.00
C6       0.51240    0.08319    0.80095   1.00
H2       0.37051    0.13015    0.85957   1.00
H2       0.49521    0.07594    0.78518   1.00
C6       0.39126    0.06555    0.87903   1.00
C6       0.58663    0.09485    0.80118   1.00
H2       0.45304    0.14442    0.85721   1.00
H2       0.47884    0.03471    0.80846   1.00
C6       0.31522    0.01433    0.88368   1.00
C6       0.63574    0.15704    0.78802   1.00
C6       0.43200    0.02731    0.87910   1.00
C6       0.61524    0.10484    0.82303   1.00
C6       0.41907    0.11882    0.89645   1.00
C6       0.58511    0.03086    0.79207   1.00
H2       0.28484    0.03956    0.88341   1.00
H2       0.61639    0.15206    0.77257   1.00
H2       0.29348    -0.02705   0.87267   1.00
H2       0.64251    0.20451    0.79429   1.00
H2       0.30935    -0.00865   0.89863   1.00
H2       0.68610    0.16189    0.78713   1.00
H2       0.42962    0.00483    0.89393   1.00
H2       0.66496    0.10803    0.82316   1.00
H2       0.41141    -0.01396   0.86802   1.00
H2       0.62176    0.15183    0.82966   1.00
H2       0.48547    0.06196    0.87544   1.00
H2       0.58087    0.06240    0.83273   1.00
H2       0.39147    0.14684    0.89720   1.00
H2       0.56592    0.02190    0.77653   1.00
H2       0.41374    0.09438    0.91114   1.00
H2       0.63599    0.03675    0.79178   1.00
H2       0.47303    0.15569    0.89424   1.00
H2       0.55229    -0.01462   0.80096   1.00
C4       0.86797    0.17467    0.79832   1.00
C4       0.84399    0.20240    0.78306   1.00
C3       0.85574    0.10658    0.79743   1.00
C3       0.81247    0.16659    0.76484   1.00
C3       0.90562    0.21584    0.81523   1.00
C3       0.85149    0.26843    0.78585   1.00
C2       0.91930    0.11962    0.82864   1.00
C2       0.79246    0.25698    0.75264   1.00
C3       0.88085    0.07989    0.81206   1.00
C3       0.78714    0.19279    0.75013   1.00
C3       0.93063    0.18686    0.82974   1.00
C3       0.82467    0.29312    0.77055   1.00
H1       0.82754    0.07360    0.78623   1.00
H1       0.80733    0.12043    0.76149   1.00
C5       0.91710    0.28382    0.81739   1.00
C5       0.88535    0.30811    0.80348   1.00
H1       0.87049    0.03048    0.81051   1.00
H1       0.76470    0.16432    0.73736   1.00
H1       0.95801    0.21470    0.84190   1.00
H1       0.82861    0.33964    0.77206   1.00
C6       0.96310    0.32922    0.83416   1.00
C6       0.88648    0.37461    0.80729   1.00
H2       1.00831    0.32393    0.83497   1.00
H2       0.83605    0.36749    0.80420   1.00
H2       0.98520    0.38292    0.83042   1.00
H2       0.89252    0.38770    0.82331   1.00
C6       0.92631    0.31542    0.85521   1.00
C6       0.94332    0.43599    0.79499   1.00
H2       0.89570    0.26046    0.85777   1.00
H2       0.94404    0.42001    0.77939   1.00
C6       0.97191    0.34808    0.87440   1.00
C6       0.93981    0.50327    0.79417   1.00
H2       0.88961    0.33328    0.85429   1.00
H2       0.99259    0.44799    0.80139   1.00
C6       1.01822    0.31712    0.87871   1.00
C6       0.87622    0.49321    0.78232   1.00
C6       1.01678    0.42649    0.87230   1.00
C6       0.93943    0.53052    0.81569   1.00
C6       0.92467    0.33296    0.89308   1.00
C6       1.00392    0.55847    0.78285   1.00
H2       0.98813    0.26165    0.87994   1.00
H2       0.87440    0.47293    0.76716   1.00
H2       1.05567    0.32947    0.86671   1.00
H2       0.82916    0.45805    0.79012   1.00
H2       1.04627    0.33672    0.89287   1.00
H2       0.87672    0.54139    0.78062   1.00
H2       1.04468    0.44926    0.88631   1.00
H2       0.94191    0.57987    0.81495   1.00
H2       1.05423    0.43993    0.86022   1.00
H2       0.89296    0.49566    0.82383   1.00
H2       0.98553    0.44942    0.86885   1.00
H2       0.98295    0.53670    0.82450   1.00
H2       0.89230    0.27811    0.89538   1.00
H2       1.00627    0.54203    0.76745   1.00
H2       0.95424    0.35441    0.90693   1.00
H2       1.00358    0.60641    0.78177   1.00
H2       0.89160    0.35477    0.89114   1.00
H2       1.05056    0.56887    0.79072   1.00
C4       0.01683    0.49502    0.36538   1.00
C4       -0.03506   0.47187    0.38057   1.00
C3       0.01915    0.45045    0.35055   1.00
C3       -0.09209   0.40437    0.38069   1.00
C3       0.06887    0.56524    0.36479   1.00
C3       -0.03063   0.51730    0.39633   1.00
C2       0.11981    0.54241    0.33406   1.00
C2       -0.13828   0.42396    0.41183   1.00
C3       0.06881    0.47336    0.33529   1.00
C3       -0.14201   0.38092    0.39588   1.00
C3       0.11830    0.58660    0.34894   1.00
C3       -0.08232   0.49131    0.41158   1.00
H1       -0.01475   0.39953    0.35041   1.00
H1       -0.09987   0.36990    0.36964   1.00
C5       0.07087    0.61198    0.37983   1.00
C5       0.02406    0.58669    0.39653   1.00
H1       0.06752    0.43869    0.32500   1.00
H1       -0.18173   0.33158    0.39516   1.00
H1       0.15582    0.63620    0.34793   1.00
H1       -0.08068   0.52192    0.42311   1.00
C6       0.12173    0.68736    0.37776   1.00
C6       0.03213    0.63202    0.41443   1.00
H2       0.12279    0.70260    0.36203   1.00
H2       0.02453    0.60340    0.42841   1.00
H2       0.10450    0.71838    0.38552   1.00
H2       0.08453    0.67305    0.41612   1.00
C6       0.19475    0.70738    0.38561   1.00
C6       -0.01583   0.66333    0.41332   1.00
H2       0.20849    0.67021    0.38019   1.00
H2       -0.06694   0.62397    0.40870   1.00
C6       0.25465    0.78022    0.38017   1.00
C6       -0.02310   0.69830    0.43290   1.00
H2       0.19210    0.70216    0.40211   1.00
H2       0.00255    0.70076    0.40105   1.00
C6       0.26912    0.78825    0.35704   1.00
C6       -0.05917   0.64603    0.45023   1.00
C6       0.24017    0.83674    0.38752   1.00
C6       0.04702    0.75576    0.44051   1.00
C6       0.32030    0.79100    0.39095   1.00
C6       -0.06764   0.73074    0.42779   1.00
H2       0.27845    0.74838    0.35132   1.00
H2       -0.10840   0.60417    0.44523   1.00
H2       0.22646    0.78543    0.34859   1.00
H2       -0.02853   0.62424    0.45545   1.00
H2       0.31388    0.83740    0.35356   1.00
H2       -0.06824   0.66999    0.46330   1.00
H2       0.28418    0.88730    0.38496   1.00
H2       0.04100    0.78300    0.45327   1.00
H2       0.19714    0.83436    0.37937   1.00
H2       0.07877    0.73503    0.44562   1.00
H2       0.22840    0.83138    0.40369   1.00
H2       0.07412    0.79253    0.42846   1.00
H2       0.33324    0.75273    0.38612   1.00
H2       -0.11813   0.69211    0.42253   1.00
H2       0.36379    0.84112    0.38750   1.00
H2       -0.07459   0.75548    0.44106   1.00
H2       0.31375    0.78731    0.40739   1.00
H2       -0.04414   0.76918    0.41591   1.00
C4       0.47834    0.98308    0.36541   1.00
C4       0.50706    1.03491    0.38061   1.00
C3       0.43291    0.98186    0.35025   1.00
C3       0.49813    1.09289    0.38045   1.00
C3       0.49505    0.92997    0.36515   1.00
C3       0.54645    1.02944    0.39669   1.00
C2       0.42286    0.88018    0.33406   1.00
C2       0.56230    1.13806    0.41189   1.00
C3       0.40621    0.93224    0.33497   1.00
C3       0.52456    1.14278    0.39565   1.00
C3       0.46709    0.88061    0.34927   1.00
C3       0.57217    1.08115    0.41193   1.00
H1       0.41696    1.01659    0.34985   1.00
H1       0.47266    1.10140    0.36917   1.00
C5       0.53824    0.92686    0.38052   1.00
C5       0.55960    0.97373    0.39720   1.00
H1       0.37393    0.93435    0.32443   1.00
H1       0.51610    1.18322    0.39470   1.00
H1       0.47815    0.84233    0.34849   1.00
H1       0.60002    1.07880    0.42368   1.00
C6       0.56131    0.87478    0.37882   1.00
C6       0.59508    0.96467    0.41540   1.00
H2       0.57625    0.87333    0.36319   1.00
H2       0.57366    0.97290    0.42919   1.00
H2       0.60889    0.89104    0.38687   1.00
H2       0.58246    0.91192    0.41720   1.00
C6       0.50670    0.80220    0.38654   1.00
C6       0.67459    1.01126    0.41470   1.00
H2       0.45643    0.78953    0.38080   1.00
H2       0.68775    1.06269    0.40997   1.00
C6       0.51832    0.74124    0.38142   1.00
C6       0.71528    1.01761    0.43456   1.00
H2       0.50321    0.80497    0.40301   1.00
H2       0.69371    0.99217    0.40264   1.00
C6       0.51304    0.72672    0.35830   1.00
C6       0.69909    1.05454    0.45163   1.00
C6       0.58832    0.75416    0.38924   1.00
C6       0.70056    0.94696    0.44233   1.00
C6       0.46187    0.67617    0.39204   1.00
C6       0.79269    1.06079    0.42985   1.00
H2       0.46459    0.71848    0.35225   1.00
H2       0.70790    1.10417    0.44651   1.00
H2       0.55394    0.76890    0.34999   1.00
H2       0.64626    1.02482    0.45658   1.00
H2       0.51648    0.68130    0.35502   1.00
H2       0.73113    1.06292    0.46491   1.00
H2       0.59386    0.70946    0.38689   1.00
H2       0.73277    0.95226    0.45531   1.00
H2       0.63001    0.79669    0.38123   1.00
H2       0.64766    0.91613    0.44717   1.00
H2       0.59393    0.76594    0.40541   1.00
H2       0.71019    0.91928    0.43045   1.00
H2       0.41129    0.66432    0.38688   1.00
H2       0.80597    1.11158    0.42450   1.00
H2       0.46755    0.63198    0.38880   1.00
H2       0.82333    1.06706    0.44333   1.00
H2       0.46383    0.68275    0.40847   1.00
H2       0.80759    1.03661    0.41817   1.00
C4       0.50475    0.52166    0.36541   1.00
C4       0.52787    0.49294    0.38061   1.00
C3       0.54899    0.56716    0.35026   1.00
C3       0.59480    0.50193    0.38046   1.00
C3       0.43492    0.50490    0.36513   1.00
C3       0.48299    0.45349    0.39667   1.00
C2       0.45734    0.57715    0.33406   1.00
C2       0.57579    0.43770    0.41189   1.00
C3       0.52606    0.59385    0.33499   1.00
C3       0.61826    0.47550    0.39566   1.00
C3       0.41352    0.53287    0.34926   1.00
C3       0.50898    0.42777    0.41192   1.00
H1       0.59968    0.58314    0.34987   1.00
H1       0.62880    0.52745    0.36919   1.00
C5       0.38861    0.46165    0.38049   1.00
C5       0.41411    0.44028    0.39717   1.00
H1       0.56046    0.62618    0.32445   1.00
H1       0.66718    0.48401    0.39472   1.00
H1       0.36417    0.52176    0.34847   1.00
H1       0.47876    0.39988    0.42365   1.00
C6       0.31344    0.43852    0.37878   1.00
C6       0.36954    0.40473    0.41536   1.00
H2       0.29710    0.42362    0.36315   1.00
H2       0.39915    0.42614    0.42916   1.00
H2       0.28213    0.39092    0.38682   1.00
H2       0.32937    0.41730    0.41716   1.00
C6       0.29539    0.49307    0.38651   1.00
C6       0.33667    0.32523    0.41464   1.00
H2       0.33298    0.54337    0.38078   1.00
H2       0.37499    0.31213    0.40993   1.00
C6       0.22281    0.48140    0.38137   1.00
C6       0.30231    0.28449    0.43449   1.00
H2       0.30161    0.49652    0.40297   1.00
H2       0.29850    0.30611    0.40257   1.00
C6       0.21362    0.48672    0.35825   1.00
C6       0.35539    0.30067    0.45158   1.00
C6       0.16575    0.41136    0.38917   1.00
C6       0.24632    0.29912    0.44226   1.00
C6       0.21410    0.53779    0.39200   1.00
C6       0.26814    0.20708    0.42978   1.00
H2       0.25381    0.53521    0.35221   1.00
H2       0.39626    0.29191    0.44646   1.00
H2       0.21495    0.44586    0.34994   1.00
H2       0.37847    0.35349    0.45653   1.00
H2       0.16475    0.48325    0.35496   1.00
H2       0.33173    0.26860    0.46485   1.00
H2       0.11549    0.40578    0.38682   1.00
H2       0.21940    0.26688    0.45524   1.00
H2       0.16665    0.36971    0.38116   1.00
H2       0.26834    0.35200    0.44711   1.00
H2       0.17188    0.40572    0.40534   1.00
H2       0.20904    0.28949    0.43038   1.00
H2       0.25282    0.58840    0.38685   1.00
H2       0.30570    0.19386    0.42442   1.00
H2       0.16422    0.53207    0.38875   1.00
H2       0.24377    0.17641    0.44324   1.00
H2       0.21868    0.53579    0.40843   1.00
H2       0.22909    0.19219    0.41809   1.00
C4       0.16961    0.31556    0.19900   1.00
C4       0.19629    0.36909    0.21370   1.00
C3       0.10105    0.26052    0.19964   1.00
C3       0.15453    0.37522    0.22877   1.00
C3       0.21243    0.31620    0.18296   1.00
C3       0.26730    0.41892    0.21355   1.00
C2       0.11462    0.20905    0.16871   1.00
C2       0.25077    0.47538    0.24406   1.00
C3       0.07418    0.20902    0.18492   1.00
C3       0.18087    0.42648    0.24356   1.00
C3       0.18299    0.26300    0.16821   1.00
C3       0.29218    0.47010    0.22895   1.00
H1       0.06825    0.25542    0.21093   1.00
H1       0.10329    0.34305    0.22943   1.00
C5       0.28268    0.36872    0.18200   1.00
C5       0.31136    0.41710    0.19824   1.00
H1       0.02425    0.17089    0.18619   1.00
H1       0.14812    0.42795    0.25405   1.00
H1       0.21168    0.26197    0.15650   1.00
H1       0.34244    0.50615    0.22942   1.00
C6       0.32536    0.37287    0.16380   1.00
C6       0.38749    0.46563    0.19954   1.00
H2       0.29564    0.36506    0.15004   1.00
H2       0.40403    0.46760    0.21517   1.00
H2       0.36772    0.42428    0.16153   1.00
H2       0.41606    0.44566    0.19171   1.00
C6       0.35363    0.32235    0.16504   1.00
C6       0.40974    0.53855    0.19110   1.00
H2       0.31328    0.27248    0.17022   1.00
H2       0.37477    0.55502    0.19664   1.00
C6       0.38530    0.31115    0.14532   1.00
C6       0.48419    0.59681    0.19573   1.00
H2       0.39228    0.34058    0.17697   1.00
H2       0.40280    0.53438    0.17466   1.00
C6       0.33080    0.27502    0.12854   1.00
C6       0.49515    0.61362    0.21870   1.00
C6       0.44391    0.37927    0.13693   1.00
C6       0.53778    0.57842    0.18815   1.00
C6       0.41526    0.26449    0.15053   1.00
C6       0.49678    0.66233    0.18446   1.00
H2       0.28814    0.22723    0.13409   1.00
H2       0.45737    0.62574    0.22459   1.00
H2       0.31052    0.30692    0.12325   1.00
H2       0.49120    0.57099    0.22744   1.00
H2       0.35233    0.26320    0.11540   1.00
H2       0.54558    0.65736    0.22160   1.00
H2       0.46881    0.37043    0.12405   1.00
H2       0.58945    0.62122    0.19013   1.00
H2       0.42473    0.41225    0.13173   1.00
H2       0.53421    0.53536    0.19659   1.00
H2       0.48231    0.40643    0.14858   1.00
H2       0.53029    0.56497    0.17210   1.00
H2       0.37571    0.21528    0.15634   1.00
H2       0.46063    0.67798    0.18942   1.00
H2       0.43763    0.25477    0.13717   1.00
H2       0.54809    0.70472    0.18734   1.00
H2       0.45510    0.28787    0.16203   1.00
H2       0.49114    0.65411    0.16810   1.00
C4       0.69258    0.86855    0.20148   1.00
C4       0.64283    0.84297    0.21731   1.00
C3       0.68825    0.90563    0.18463   1.00
C3       0.58939    0.85873    0.21852   1.00
C3       0.74912    0.85700    0.20225   1.00
C3       0.64591    0.79998    0.23266   1.00
C2       0.79492    0.92319    0.16996   1.00
C2       0.54023    0.78856    0.24876   1.00
C3       0.73796    0.93246    0.16939   1.00
C3       0.53940    0.83216    0.23369   1.00
C3       0.79884    0.88550    0.18648   1.00
C3       0.59380    0.77366    0.24778   1.00
H1       0.64845    0.91395    0.18270   1.00
H1       0.58518    0.89067    0.20855   1.00
C5       0.75473    0.81759    0.21838   1.00
C5       0.70016    0.78463    0.23273   1.00
H1       0.73202    0.95897    0.15768   1.00
H1       0.50204    0.84526    0.23368   1.00
H1       0.84000    0.87878    0.18658   1.00
H1       0.59400    0.74256    0.25887   1.00
C6       0.81838    0.81193    0.22019   1.00
C6       0.69874    0.73337    0.24776   1.00
H2       0.86298    0.86196    0.21764   1.00
H2       0.64724    0.68965    0.24844   1.00
H2       0.82668    0.80133    0.23568   1.00
H2       0.72758    0.70999    0.24231   1.00
C6       0.81797    0.75663    0.20579   1.00
C6       0.72561    0.76446    0.26931   1.00
H2       0.79997    0.76073    0.19076   1.00
H2       0.70416    0.79645    0.27367   1.00
C6       0.88661    0.75660    0.20300   1.00
C6       0.71255    0.71366    0.28714   1.00
H2       0.77967    0.70663    0.21149   1.00
H2       0.78052    0.79928    0.26811   1.00
C6       0.94089    0.82174    0.19193   1.00
C6       0.63546    0.66938    0.29204   1.00
C6       0.91584    0.75005    0.22359   1.00
C6       0.74207    0.66646    0.28245   1.00
C6       0.87285    0.69433    0.18973   1.00
C6       0.74860    0.75554    0.30644   1.00
H2       0.92140    0.82843    0.17747   1.00
H2       0.61282    0.70123    0.29510   1.00
H2       0.95613    0.86728    0.20102   1.00
H2       0.60754    0.63544    0.27952   1.00
H2       0.98683    0.81908    0.18881   1.00
H2       0.62721    0.63756    0.30536   1.00
H2       0.96098    0.74516    0.22137   1.00
H2       0.73704    0.63466    0.29551   1.00
H2       0.93080    0.79492    0.23300   1.00
H2       0.71520    0.63249    0.26981   1.00
H2       0.87810    0.70533    0.23189   1.00
H2       0.79601    0.69637    0.27853   1.00
H2       0.85276    0.69684    0.17489   1.00
H2       0.72904    0.78930    0.31055   1.00
H2       0.91948    0.69234    0.18723   1.00
H2       0.74055    0.72224    0.31938   1.00
H2       0.83586    0.64659    0.19695   1.00
H2       0.80349    0.78690    0.30407   1.00
C4       0.13221    0.82567    0.20173   1.00
C4       0.15834    0.80196    0.21754   1.00
C3       0.08413    0.78084    0.18718   1.00
C3       0.13299    0.73128    0.22120   1.00
C3       0.15453    0.89677    0.20016   1.00
C3       0.21179    0.85004    0.23034   1.00
C2       0.07681    0.87310    0.17036   1.00
C2       0.21340    0.75400    0.24886   1.00
C3       0.05695    0.80365    0.17203   1.00
C3       0.15982    0.70792    0.23630   1.00
C3       0.12532    0.91788    0.18457   1.00
C3       0.23797    0.82415    0.24547   1.00
H1       0.06757    0.73002    0.18693   1.00
H1       0.09361    0.69412    0.21316   1.00
C5       0.20497    0.94472    0.21384   1.00
C5       0.23744    0.92176    0.22793   1.00
H1       0.02224    0.76871    0.16205   1.00
H1       0.13948    0.65629    0.23813   1.00
H1       0.13955    0.96794    0.18306   1.00
H1       0.27629    0.85675    0.25478   1.00
C6       0.22271    1.01866    0.21338   1.00
C6       0.29878    0.97222    0.24011   1.00
H2       0.17588    1.02089    0.21215   1.00
H2       0.33685    0.95620    0.24004   1.00
H2       0.24265    1.04364    0.22788   1.00
H2       0.32606    1.02149    0.23261   1.00
C6       0.27480    1.06107    0.19625   1.00
C6       0.28033    0.98271    0.26223   1.00
H2       0.26034    1.03167    0.18216   1.00
H2       0.24465    0.93324    0.26889   1.00
C6       0.28527    1.13338    0.19139   1.00
C6       0.34050    1.02150    0.27755   1.00
H2       0.32415    1.06692    0.20040   1.00
H2       0.25208    1.01006    0.26121   1.00
C6       0.22002    1.12888    0.18225   1.00
C6       0.37676    0.98041    0.28240   1.00
C6       0.30683    1.17937    0.21049   1.00
C6       0.39361    1.09298    0.26952   1.00
C6       0.34300    1.16817    0.17540   1.00
C6       0.31109    1.03127    0.29774   1.00
H2       0.20281    1.09583    0.16891   1.00
H2       0.34042    0.92924    0.28780   1.00
H2       0.17838    1.10870    0.19317   1.00
H2       0.40228    0.97523    0.26909   1.00
H2       0.22924    1.17907    0.17762   1.00
H2       0.41545    1.00558    0.29413   1.00
H2       0.31872    1.23107    0.20667   1.00
H2       0.43270    1.12146    0.28090   1.00
H2       0.26602    1.15963    0.22171   1.00
H2       0.41929    1.08891    0.25606   1.00
H2       0.35187    1.18224    0.21748   1.00
H2       0.36915    1.12247    0.26558   1.00
H2       0.32998    1.13803    0.16149   1.00
H2       0.27372    0.98215    0.30418   1.00
H2       0.35192    1.21878    0.17141   1.00
H2       0.35121    1.05780    0.30901   1.00
H2       0.39088    1.17407    0.18114   1.00
H2       0.28598    1.06118    0.29538   1.00
C4       0.98329    0.50532    0.63465   1.00
C4       1.03664    0.53260    0.61989   1.00
C3       0.93988    0.43386    0.63753   1.00
C3       1.05493    0.49068    0.60849   1.00
C3       0.97211    0.55048    0.64713   1.00
C3       1.07374    0.60445    0.61621   1.00
C2       0.87754    0.45009    0.66517   1.00
C2       1.14227    0.58731    0.58933   1.00
C3       0.88881    0.40696    0.65238   1.00
C3       1.10587    0.51703    0.59360   1.00
C3       0.91982    0.52103    0.66215   1.00
C3       1.12500    0.62920    0.60084   1.00
H1       0.94329    0.39865    0.62880   1.00
H1       1.03237    0.43950    0.61073   1.00
C5       1.01230    0.62288    0.64436   1.00
C5       1.05959    0.64954    0.62781   1.00
H1       0.85940    0.35494    0.65374   1.00
H1       1.11645    0.48406    0.58585   1.00
H1       0.91065    0.55149    0.67140   1.00
H1       1.15215    0.67991    0.59768   1.00
C6       1.00487    0.67013    0.65906   1.00
C6       1.09409    0.72441    0.62228   1.00
H2       1.00268    0.65174    0.67447   1.00
H2       1.09327    0.72926    0.60586   1.00
H2       1.05072    0.71996    0.65963   1.00
H2       1.06439    0.74748    0.62720   1.00
C6       0.94227    0.67954    0.65425   1.00
C6       1.16819    0.76693    0.63100   1.00
H2       0.89783    0.63003    0.65074   1.00
H2       1.19548    0.73902    0.62869   1.00
C6       0.92056    0.71458    0.67080   1.00
C6       1.21407    0.84097    0.62265   1.00
H2       0.95355    0.70914    0.64026   1.00
H2       1.16413    0.76993    0.64744   1.00
C6       0.89319    0.67010    0.69017   1.00
C6       1.23152    0.84069    0.59991   1.00
C6       0.98031    0.78588    0.67662   1.00
C6       1.17987    0.88499    0.62550   1.00
C6       0.86208    0.72403    0.66210   1.00
C6       1.28224    0.87526    0.63463   1.00
H2       0.85164    0.61900    0.68653   1.00
H2       1.25475    0.80911    0.59734   1.00
H2       0.93298    0.66484    0.69779   1.00
H2       1.18621    0.82105    0.59042   1.00
H2       0.87382    0.69266    0.70104   1.00
H2       1.26728    0.89211    0.59460   1.00
H2       0.96340    0.81185    0.68706   1.00
H2       1.21422    0.93773    0.62097   1.00
H2       1.02103    0.78176    0.68410   1.00
H2       1.13397    0.86572    0.61626   1.00
H2       1.00147    0.81777    0.66318   1.00
H2       1.16576    0.88487    0.64132   1.00
H2       0.81822    0.67498    0.65794   1.00
H2       1.30886    0.84650    0.63295   1.00
H2       0.84481    0.74796    0.67318   1.00
H2       1.31629    0.92706    0.62925   1.00
H2       0.87872    0.75622    0.64860   1.00
H2       1.27340    0.87823    0.65078   1.00
C4       0.52187    0.01680    0.63463   1.00
C4       0.49572    -0.03658   0.61988   1.00
C3       0.49507    0.06143    0.63714   1.00
C3       0.43653    -0.05362   0.60810   1.00
C3       0.57699    0.02673    0.64747   1.00
C3       0.52933    -0.07499   0.61659   1.00
C2       0.57248    0.12262    0.66512   1.00
C2       0.44472    -0.14228   0.58934   1.00
C3       0.51928    0.11254    0.65197   1.00
C3       0.41191    -0.10460   0.59322   1.00
C3       0.59992    0.07912    0.66247   1.00
C3       0.50285    -0.12624   0.60121   1.00
H1       0.45741    0.05891    0.62814   1.00
H1       0.40869    -0.03009   0.61004   1.00
C5       0.60796    -0.01474   0.64510   1.00
C5       0.58746    -0.06211   0.62856   1.00
H1       0.49761    0.14286    0.65306   1.00
H1       0.36914    -0.11425   0.58519   1.00
H1       0.63869    0.08744    0.67198   1.00
H1       0.52562    -0.15431   0.59833   1.00
C6       0.66123    -0.00853   0.66017   1.00
C6       0.62680    -0.09803   0.62347   1.00
H2       0.64433    -0.00590   0.67545   1.00
H2       0.63343    -0.09737   0.60709   1.00
H2       0.66399    -0.05504   0.66093   1.00
H2       0.67933    -0.06926   0.62866   1.00
C6       0.73417    0.05304    0.65566   1.00
C6       0.59325    -0.17224   0.63223   1.00
H2       0.73048    0.09814    0.65194   1.00
H2       0.53822    -0.19850   0.62961   1.00
C6       0.78970    0.07363    0.67254   1.00
C6       0.62043    -0.21937   0.62425   1.00
H2       0.75283    0.04115    0.64185   1.00
H2       0.59930    -0.16828   0.64870   1.00
C6       0.77229    0.10179    0.69169   1.00
C6       0.60390    -0.23664   0.60145   1.00
C6       0.79927    0.01289    0.67866   1.00
C6       0.69831    -0.18669   0.62755   1.00
C6       0.85874    0.13113    0.66413   1.00
C6       0.58455    -0.28752   0.63623   1.00
H2       0.76412    0.14407    0.68782   1.00
H2       0.54937    -0.25880   0.59856   1.00
H2       0.72636    0.06264    0.69912   1.00
H2       0.63094    -0.19143   0.59199   1.00
H2       0.81349    0.12038    0.70279   1.00
H2       0.61879    -0.27323   0.59639   1.00
H2       0.84137    0.02896    0.68936   1.00
H2       0.71590    -0.22191   0.62329   1.00
H2       0.75353    -0.02721   0.68596   1.00
H2       0.72632    -0.14090   0.61834   1.00
H2       0.81017    -0.00881   0.66539   1.00
H2       0.71150    -0.17272   0.64342   1.00
H2       0.85497    0.17565    0.65977   1.00
H2       0.52932    -0.31310   0.63424   1.00
H2       0.89917    0.14761    0.67545   1.00
H2       0.60156    -0.32243   0.63111   1.00
H2       0.87452    0.11390    0.65081   1.00
H2       0.59543    -0.27883   0.65243   1.00
C4       0.49491    0.47812    0.63463   1.00
C4       0.46768    0.50427    0.61988   1.00
C3       0.56634    0.50497    0.63715   1.00
C3       0.50982    0.56350    0.60812   1.00
C3       0.44973    0.42296    0.64746   1.00
C3       0.39566    0.47061    0.61657   1.00
C2       0.55013    0.42752    0.66513   1.00
C2       0.41297    0.55527    0.58934   1.00
C3       0.59324    0.48076    0.65199   1.00
C3       0.48346    0.58812    0.59324   1.00
C3       0.47919    0.40003    0.66246   1.00
C3       0.37090    0.49710    0.60120   1.00
H1       0.60149    0.54267    0.62817   1.00
H1       0.56118    0.59137    0.61007   1.00
C5       0.37728    0.39194    0.64507   1.00
C5       0.35042    0.41245    0.62854   1.00
H1       0.64524    0.50247    0.65309   1.00
H1       0.51658    0.63092    0.58522   1.00
H1       0.44874    0.36123    0.67195   1.00
H1       0.32006    0.47429    0.59831   1.00
C6       0.33021    0.33861    0.66013   1.00
C6       0.27517    0.37306    0.62343   1.00
H2       0.34969    0.35548    0.67541   1.00
H2       0.26925    0.36647    0.60704   1.00
H2       0.28092    0.33581    0.66088   1.00
H2       0.25144    0.32053    0.62860   1.00
C6       0.31892    0.26571    0.65560   1.00
C6       0.23444    0.40654    0.63218   1.00
H2       0.36773    0.26945    0.65190   1.00
H2       0.26318    0.46157    0.62958   1.00
C6       0.28398    0.21013    0.67247   1.00
C6       0.16014    0.37932    0.62419   1.00
H2       0.28840    0.24706    0.64179   1.00
H2       0.23232    0.40045    0.64865   1.00
C6       0.32950    0.22753    0.69163   1.00
C6       0.15944    0.39590    0.60139   1.00
C6       0.21363    0.20049    0.67859   1.00
C6       0.11498    0.30143    0.62747   1.00
C6       0.27251    0.14113    0.66405   1.00
C6       0.12779    0.41512    0.63617   1.00
H2       0.37998    0.23576    0.68777   1.00
H2       0.19178    0.45044    0.59852   1.00
H2       0.33622    0.27343    0.69907   1.00
H2       0.17766    0.36890    0.59193   1.00
H2       0.30689    0.18630    0.70272   1.00
H2       0.10797    0.38098    0.59632   1.00
H2       0.18759    0.15835    0.68927   1.00
H2       0.06217    0.28380    0.62320   1.00
H2       0.21921    0.24619    0.68589   1.00
H2       0.13282    0.27347    0.61826   1.00
H2       0.18105    0.18959    0.66530   1.00
H2       0.11573    0.28820    0.64334   1.00
H2       0.32083    0.14496    0.65970   1.00
H2       0.15741    0.47036    0.63419   1.00
H2       0.24857    0.10068    0.67536   1.00
H2       0.07588    0.39808    0.63104   1.00
H2       0.23953    0.12536    0.65072   1.00
H2       0.12557    0.40421    0.65237   1.00
C4       0.49889    0.02769    0.13136   1.00
C4       0.47283    -0.02247   0.11564   1.00
C3       0.56058    0.04561    0.14188   1.00
C3       0.51009    -0.05293   0.10790   1.00
C3       0.46247    0.06167    0.13700   1.00
C3       0.40714    -0.04351   0.10715   1.00
C2       0.55337    0.13149    0.16246   1.00
C2       0.41880    -0.12633   0.08455   1.00
C3       0.58727    0.09614    0.15689   1.00
C3       0.48387    -0.10353   0.09290   1.00
C3       0.49158    0.11310    0.15228   1.00
C3       0.38212    -0.09545   0.09198   1.00
H1       0.58809    0.02213    0.13917   1.00
H1       0.55796    -0.03902   0.11272   1.00
C5       0.39862    0.04379    0.12755   1.00
C5       0.36846    -0.01263   0.11373   1.00
H1       0.63213    0.10688    0.16385   1.00
H1       0.51317    -0.12367   0.08802   1.00
H1       0.46743    0.13871    0.15660   1.00
H1       0.33545    -0.11209   0.08567   1.00
C6       0.36435    0.08509    0.13210   1.00
C6       0.29616    -0.04041   0.10619   1.00
H2       0.40261    0.13911    0.13197   1.00
H2       0.26972    -0.09594   0.10666   1.00
H2       0.33094    0.08210    0.11981   1.00
H2       0.26595    -0.02936   0.11669   1.00
C6       0.32281    0.06386    0.15241   1.00
C6       0.29238    -0.01344   0.08461   1.00
H2       0.35268    0.05708    0.16426   1.00
H2       0.33007    -0.01522   0.07466   1.00
C6       0.29803    0.11233    0.16093   1.00
C6       0.22197    -0.04985   0.07342   1.00
H2       0.27820    0.01340    0.15017   1.00
H2       0.30855    0.04062    0.08606   1.00
C6       0.35875    0.18206    0.16762   1.00
C6       0.20031    -0.12453   0.06783   1.00
C6       0.25425    0.12440    0.14523   1.00
C6       0.16512    -0.04915   0.08631   1.00
C6       0.25317    0.07842    0.17994   1.00
C6       0.22867    -0.01109   0.05335   1.00
H2       0.39131    0.17525    0.17847   1.00
H2       0.23991    -0.12686   0.05900   1.00
H2       0.39020    0.21063    0.15474   1.00
H2       0.19059    -0.15585   0.08132   1.00
H2       0.34087    0.21365    0.17482   1.00
H2       0.15364    -0.14793   0.05882   1.00
H2       0.23322    0.15420    0.15180   1.00
H2       0.11745    -0.07024   0.07781   1.00
H2       0.28470    0.15238    0.13211   1.00
H2       0.15507    -0.07972   0.10000   1.00
H2       0.21192    0.07601    0.13995   1.00
H2       0.17972    0.00275    0.09081   1.00
H2       0.28195    0.06942    0.19162   1.00
H2       0.26778    -0.01070   0.04357   1.00
H2       0.23496    0.11063    0.18654   1.00
H2       0.18079    -0.03492   0.04490   1.00
H2       0.20860    0.02950    0.17611   1.00
H2       0.24255    0.04172    0.05631   1.00
C4       0.98257    0.47897    0.13444   1.00
C4       1.03412    0.50756    0.11916   1.00
C3       0.98641    0.44107    0.15114   1.00
C3       1.09634    0.50645    0.12061   1.00
C3       0.92455    0.48804    0.13322   1.00
C3       1.02398    0.53876    0.10166   1.00
C2       0.88003    0.42399    0.16590   1.00
C2       1.13697    0.56237    0.08778   1.00
C3       0.93695    0.41466    0.16646   1.00
C3       1.14612    0.53267    0.10538   1.00
C3       0.87550    0.46065    0.14919   1.00
C3       1.07576    0.56453    0.08644   1.00
H1       1.02495    0.43065    0.15269   1.00
H1       1.10813    0.48715    0.13288   1.00
C5       0.91643    0.52326    0.11632   1.00
C5       0.96365    0.54396    0.09975   1.00
H1       0.94282    0.38802    0.17814   1.00
H1       1.18977    0.53006    0.10729   1.00
H1       0.83379    0.46645    0.14892   1.00
H1       1.07019    0.58665    0.07371   1.00
C6       0.85869    0.53878    0.11631   1.00
C6       0.95024    0.57046    0.08022   1.00
H2       0.85501    0.55707    0.13129   1.00
H2       0.96180    0.54752    0.06741   1.00
H2       0.87029    0.58261    0.10686   1.00
H2       0.89617    0.55172    0.07800   1.00
C6       0.78887    0.47685    0.10939   1.00
C6       0.98980    0.65026    0.07883   1.00
H2       0.78142    0.43028    0.11669   1.00
H2       1.04235    0.67019    0.08391   1.00
C6       0.72308    0.48165    0.11304   1.00
C6       0.99205    0.68300    0.05772   1.00
H2       0.79258    0.46911    0.09318   1.00
H2       0.96711    0.66922    0.08982   1.00
C6       0.70789    0.48175    0.13598   1.00
C6       1.03332    0.66749    0.04194   1.00
C6       0.72846    0.54597    0.10296   1.00
C6       0.91948    0.65836    0.04934   1.00
C6       0.66147    0.41809    0.10343   1.00
C6       1.02818    0.76161    0.06033   1.00
H2       0.70488    0.43751    0.14361   1.00
H2       1.08450    0.68329    0.04755   1.00
H2       0.74727    0.52738    0.14348   1.00
H2       1.00844    0.61330    0.03843   1.00
H2       0.65950    0.48032    0.13836   1.00
H2       1.03861    0.69438    0.02772   1.00
H2       0.68060    0.54631    0.10435   1.00
H2       0.92149    0.68511    0.03536   1.00
H2       0.76813    0.59228    0.11013   1.00
H2       0.89343    0.60400    0.04591   1.00
H2       0.74056    0.54788    0.08688   1.00
H2       0.88887    0.66738    0.06034   1.00
H2       0.65494    0.37116    0.11018   1.00
H2       1.08004    0.78177    0.06603   1.00
H2       0.61411    0.41888    0.10571   1.00
H2       1.03141    0.78688    0.04593   1.00
H2       0.66853    0.41589    0.08713   1.00
H2       1.00063    0.77590    0.07101   1.00
C4       0.52168    0.50479    0.13460   1.00
C4       0.49296    0.52791    0.11940   1.00
C3       0.56738    0.54907    0.14970   1.00
C3       0.50217    0.59493    0.11951   1.00
C3       0.50471    0.43489    0.13492   1.00
C3       0.45328    0.48294    0.10338   1.00
C2       0.57718    0.45738    0.16594   1.00
C2       0.43771    0.57582    0.08812   1.00
C3       0.59408    0.52615    0.16497   1.00
C3       0.47573    0.61838    0.10431   1.00
C3       0.53269    0.41350    0.15079   1.00
C3       0.42756    0.50894    0.08813   1.00
H1       0.58352    0.59980    0.15005   1.00
H1       0.52786    0.62900    0.13075   1.00
C5       0.46124    0.38851    0.11961   1.00
C5       0.43986    0.41398    0.10292   1.00
H1       0.62657    0.56059    0.17547   1.00
H1       0.48440    0.66737    0.10522   1.00
H1       0.52144    0.36411    0.15161   1.00
H1       0.39952    0.47866    0.07642   1.00
C6       0.43791    0.31332    0.12137   1.00
C6       0.40405    0.36930    0.08477   1.00
H2       0.42311    0.29714    0.13701   1.00
H2       0.42541    0.39877    0.07094   1.00
H2       0.39021    0.28205    0.11337   1.00
H2       0.41645    0.32901    0.08299   1.00
C6       0.49223    0.29497    0.11362   1.00
C6       0.32458    0.33666    0.08555   1.00
H2       0.54262    0.33251    0.11931   1.00
H2       0.31168    0.37513    0.09025   1.00
C6       0.48038    0.22236    0.11880   1.00
C6       0.28362    0.30221    0.06574   1.00
H2       0.49556    0.30105    0.09715   1.00
H2       0.30547    0.29859    0.09765   1.00
C6       0.48586    0.21333    0.14192   1.00
C6       0.29981    0.35517    0.04862   1.00
C6       0.41019    0.16537    0.11107   1.00
C6       0.29796    0.24600    0.05799   1.00
C6       0.53655    0.21334    0.10815   1.00
C6       0.20627    0.26829    0.07051   1.00
H2       0.53445    0.25348    0.14792   1.00
H2       0.29125    0.39619    0.05372   1.00
H2       0.44515    0.21488    0.15026   1.00
H2       0.35257    0.37806    0.04362   1.00
H2       0.48225    0.16442    0.14524   1.00
H2       0.26759    0.33147    0.03538   1.00
H2       0.40447    0.11506    0.11345   1.00
H2       0.26557    0.21903    0.04505   1.00
H2       0.36869    0.16648    0.11910   1.00
H2       0.35079    0.26783    0.05310   1.00
H2       0.40444    0.17139    0.09490   1.00
H2       0.28833    0.20879    0.06990   1.00
H2       0.58725    0.25200    0.11325   1.00
H2       0.19325    0.30601    0.07585   1.00
H2       0.53070    0.16343    0.11143   1.00
H2       0.17545    0.24386    0.05707   1.00
H2       0.53443    0.21779    0.09172   1.00
H2       0.19137    0.22933    0.08223   1.00
C4       0.69449    0.83147    0.70202   1.00
C4       0.64418    0.80514    0.71770   1.00
C3       0.71749    0.89660    0.69302   1.00
C3       0.61867    0.84482    0.72693   1.00
C3       0.72338    0.79181    0.69487   1.00
C3       0.61787    0.73664    0.72462   1.00
C2       0.79863    0.88620    0.67102   1.00
C2       0.54003    0.75088    0.74870   1.00
C3       0.76820    0.92338    0.67807   1.00
C3       0.56795    0.81853    0.74188   1.00
C3       0.77517    0.82110    0.67969   1.00
C3       0.56598    0.71169    0.73980   1.00
H1       0.69776    0.92674    0.69685   1.00
H1       0.63648    0.89452    0.72327   1.00
C5       0.70023    0.72470    0.70274   1.00
C5       0.64362    0.69514    0.71650   1.00
H1       0.78274    0.97079    0.67224   1.00
H1       0.55153    0.84969    0.74788   1.00
H1       0.79727    0.79466    0.67432   1.00
H1       0.54568    0.66310    0.74501   1.00
C6       0.73626    0.68632    0.69662   1.00
C6       0.61030    0.62064    0.72237   1.00
H2       0.79117    0.72108    0.69703   1.00
H2       0.55509    0.59840    0.72199   1.00
H2       0.73009    0.64881    0.70796   1.00
H2       0.61809    0.59077    0.71089   1.00
C6       0.71247    0.65010    0.67552   1.00
C6       0.63524    0.60886    0.74337   1.00
H2       0.70903    0.68474    0.66466   1.00
H2       0.63697    0.64578    0.75439   1.00
C6       0.75626    0.62191    0.66559   1.00
C6       0.59386    0.53622    0.75307   1.00
H2       0.66032    0.60781    0.67724   1.00
H2       0.68811    0.62102    0.74158   1.00
C6       0.82830    0.68027    0.65962   1.00
C6       0.52083    0.51925    0.75914   1.00
C6       0.76335    0.57136    0.67983   1.00
C6       0.58932    0.48018    0.73861   1.00
C6       0.72010    0.58309    0.64589   1.00
C6       0.63099    0.53462    0.77269   1.00
H2       0.82507    0.71746    0.64983   1.00
H2       0.52223    0.55848    0.76910   1.00
H2       0.85821    0.70715    0.67291   1.00
H2       0.49037    0.51537    0.74590   1.00
H2       0.85670    0.66051    0.65146   1.00
H2       0.49406    0.47063    0.76715   1.00
H2       0.78975    0.54834    0.67223   1.00
H2       0.56467    0.43045    0.74604   1.00
H2       0.79261    0.59720    0.69334   1.00
H2       0.55955    0.47595    0.72514   1.00
H2       0.71333    0.53051    0.68461   1.00
H2       0.64004    0.49166    0.73377   1.00
H2       0.71444    0.61676    0.63520   1.00
H2       0.63493    0.57287    0.78354   1.00
H2       0.74905    0.56278    0.63832   1.00
H2       0.60372    0.48493    0.78011   1.00
H2       0.66938    0.54032    0.64917   1.00
H2       0.68248    0.54489    0.76934   1.00
C4       0.13182    0.30693    0.70162   1.00
C4       0.15586    0.35874    0.71685   1.00
C3       0.14105    0.24927    0.70305   1.00
C3       0.18431    0.35299    0.73551   1.00
C3       0.09720    0.31219    0.68418   1.00
C3       0.15159    0.41891    0.71355   1.00
C2       0.08029    0.20041    0.67133   1.00
C2       0.20756    0.46496    0.74723   1.00
C3       0.11583    0.19740    0.68844   1.00
C3       0.20972    0.40454    0.75022   1.00
C3       0.07197    0.25809    0.66970   1.00
C3       0.17839    0.47039    0.72886   1.00
H1       0.16704    0.24312    0.71466   1.00
H1       0.18702    0.31082    0.73921   1.00
C5       0.08889    0.37046    0.68147   1.00
C5       0.12086    0.42635    0.69543   1.00
H1       0.12393    0.15701    0.69040   1.00
H1       0.22986    0.39741    0.76332   1.00
H1       0.04669    0.25977    0.65717   1.00
H1       0.17670    0.51410    0.72701   1.00
C6       0.04592    0.37190    0.66409   1.00
C6       0.12325    0.49321    0.69117   1.00
H2       -0.00042   0.32237    0.66300   1.00
H2       0.17409    0.53517    0.69466   1.00
H2       0.02541    0.40525    0.66730   1.00
H2       0.11953    0.50064    0.67503   1.00
C6       0.08530    0.39363    0.64341   1.00
C6       0.06661    0.50053    0.70264   1.00
H2       0.11431    0.36731    0.64144   1.00
H2       0.06333    0.48355    0.71833   1.00
C6       0.04243    0.38242    0.62369   1.00
C6       0.07323    0.57273    0.70303   1.00
H2       0.12352    0.44770    0.64446   1.00
H2       0.01755    0.46468    0.69582   1.00
C6       -0.00584   0.30555    0.61927   1.00
C6       0.13637    0.62457    0.71538   1.00
C6       -0.00002   0.41878    0.62494   1.00
C6       0.07736    0.60087    0.68134   1.00
C6       0.09214    0.41299    0.60546   1.00
C6       0.00898    0.56663    0.71351   1.00
H2       0.02246    0.27820    0.61863   1.00
H2       0.13555    0.60568    0.73068   1.00
H2       -0.04492   0.28167    0.63091   1.00
H2       0.18373    0.63454    0.70815   1.00
H2       -0.03197   0.29815    0.60479   1.00
H2       0.13792    0.67335    0.71675   1.00
H2       -0.02586   0.41477    0.61059   1.00
H2       0.07703    0.64890    0.68173   1.00
H2       -0.03905   0.39601    0.63665   1.00
H2       0.12416    0.61056    0.67377   1.00
H2       0.03259    0.47274    0.62846   1.00
H2       0.03419    0.56468    0.67219   1.00
H2       0.12293    0.38851    0.60376   1.00
H2       0.00405    0.54759    0.72899   1.00
H2       0.06452    0.40600    0.59127   1.00
H2       0.01144    0.61597    0.71427   1.00
H2       0.12673    0.46758    0.60749   1.00
H2       -0.03729   0.53170    0.70525   1.00
C4       0.17468    0.86797    0.70168   1.00
C4       0.20241    0.84399    0.71694   1.00
C3       0.10662    0.85581    0.70258   1.00
C3       0.16664    0.81254    0.73517   1.00
C3       0.21583    0.90555    0.68475   1.00
C3       0.26841    0.85141    0.71413   1.00
C2       0.11963    0.91931    0.67136   1.00
C2       0.25699    0.79246    0.74735   1.00
C3       0.07993    0.88093    0.68796   1.00
C3       0.19284    0.78722    0.74988   1.00
C3       0.18684    0.93057    0.67025   1.00
C3       0.29309    0.82460    0.72943   1.00
H1       0.07366    0.82767    0.71379   1.00
H1       0.12051    0.80747    0.73853   1.00
C5       0.28377    0.91696    0.68258   1.00
C5       0.30805    0.88520    0.69649   1.00
H1       0.03054    0.87063    0.68951   1.00
H1       0.16440    0.76483    0.76266   1.00
H1       0.21466    0.95789    0.65807   1.00
H1       0.33959    0.82848    0.72791   1.00
C6       0.32915    0.96288    0.66580   1.00
C6       0.37450    0.88624    0.69267   1.00
H2       0.32391    1.00812    0.66498   1.00
H2       0.36734    0.83580    0.69578   1.00
H2       0.38285    0.98494    0.66952   1.00
H2       0.38755    0.89222    0.67665   1.00
C6       0.31525    0.92602    0.64476   1.00
C6       0.43595    0.94308    0.70495   1.00
H2       0.26028    0.89546    0.64221   1.00
H2       0.42002    0.94386    0.72055   1.00
C6       0.34789    0.97156    0.62555   1.00
C6       0.50319    0.93949    0.70576   1.00
H2       0.33306    0.88929    0.64567   1.00
H2       0.44798    0.99234    0.69854   1.00
C6       0.31699    1.01792    0.62124   1.00
C6       0.49310    0.87592    0.71762   1.00
C6       0.42631    1.01638    0.62763   1.00
C6       0.53036    0.93902    0.68423   1.00
C6       0.33267    0.92426    0.60688   1.00
C6       0.55846    1.00361    0.71705   1.00
H2       0.26151    0.98788    0.62002   1.00
H2       0.47287    0.87416    0.73279   1.00
H2       0.32941    1.05541    0.63323   1.00
H2       0.45788    0.82885    0.70983   1.00
H2       0.33657    1.04592    0.60707   1.00
H2       0.54125    0.87636    0.71931   1.00
H2       0.44906    1.04422    0.61361   1.00
H2       0.57969    0.94145    0.68497   1.00
H2       0.43982    1.05387    0.63970   1.00
H2       0.49544    0.89254    0.67611   1.00
H2       0.44920    0.98509    0.63109   1.00
H2       0.53656    0.98253    0.67542   1.00
H2       0.27780    0.89193    0.60460   1.00
H2       0.54207    1.00602    0.73246   1.00
H2       0.35410    0.95378    0.59303   1.00
H2       0.60637    1.00322    0.71813   1.00
H2       0.35443    0.89115    0.60883   1.00
H2       0.56888    1.05024    0.70918   1.00
