data_IRMOF10_interpen_symm_ligand11lp_label_g_1.

_audit_creation_method             'generated by an auxiliary program of Tobunporous'

_symmetry_space_group_name_H-M     'P 1'
_symmetry_Int_Tables_number        1
_symmetry_cell_setting             triclinic

_cell_length_a                    22.6523
_cell_length_b                    22.6523
_cell_length_c                    65.9502
_cell_angle_alpha                 90.0000
_cell_angle_beta                  90.0000
_cell_angle_gamma                 120.0000

loop_
_atom_site_label
_atom_site_fract_x
_atom_site_fract_y
_atom_site_fract_z
_atom_site_occupancy
O1       0.00000    -0.00000   0.62500   1.00
Zn1      0.00000    -0.00000   0.59589   1.00
Zn1      0.94848    1.04288    0.63392   1.00
Zn1      0.09439    0.05152    0.63392   1.00
Zn1      -0.04288   0.90561    0.63392   1.00
O2       0.93860    0.02610    0.58587   1.00
O2       0.08750    0.06140    0.58587   1.00
O2       -0.02610   0.91250    0.58587   1.00
O2       0.91305    0.07161    0.61181   1.00
O2       0.00462    0.12022    0.65110   1.00
O2       0.87413    0.98074    0.65071   1.00
O2       0.15856    0.08695    0.61181   1.00
O2       0.10660    0.12587    0.65071   1.00
O2       0.11559    0.99538    0.65110   1.00
O2       -0.07161   0.84144    0.61181   1.00
O2       0.87978    0.88441    0.65110   1.00
O2       0.01926    0.89340    0.65071   1.00
C1       0.91390    0.06020    0.59358   1.00
C1       0.14630    0.08610    0.59358   1.00
C1       -0.06020   0.85370    0.59358   1.00
C1       0.06663    0.14397    0.65673   1.00
C1       0.85603    0.92267    0.65673   1.00
C1       0.07733    0.93337    0.65673   1.00
O1       -0.00000   0.00000    0.87500   1.00
Zn1      -0.00000   0.00000    0.90411   1.00
Zn1      1.04288    0.94848    0.86608   1.00
Zn1      0.05152    0.09439    0.86608   1.00
Zn1      0.90561    -0.04288   0.86608   1.00
O2       0.02610    0.93860    0.91413   1.00
O2       0.06140    0.08750    0.91413   1.00
O2       0.91250    -0.02610   0.91413   1.00
O2       0.07161    0.91305    0.88819   1.00
O2       0.12022    0.00462    0.84890   1.00
O2       0.98074    0.87413    0.84929   1.00
O2       0.08695    0.15856    0.88819   1.00
O2       0.12587    0.10660    0.84929   1.00
O2       0.99538    0.11559    0.84890   1.00
O2       0.84144    -0.07161   0.88819   1.00
O2       0.88441    0.87978    0.84890   1.00
O2       0.89340    0.01926    0.84929   1.00
C1       0.06020    0.91390    0.90642   1.00
C1       0.08610    0.14630    0.90642   1.00
C1       0.85370    -0.06020   0.90642   1.00
C1       0.14397    0.06663    0.84327   1.00
C1       0.92267    0.85603    0.84327   1.00
C1       0.93337    0.07733    0.84327   1.00
O1       0.00000    0.00000    0.37500   1.00
Zn1      0.00000    0.00000    0.40411   1.00
Zn1      0.05152    -0.04288   0.36608   1.00
Zn1      0.90561    0.94848    0.36608   1.00
Zn1      1.04288    0.09439    0.36608   1.00
O2       0.06140    -0.02610   0.41413   1.00
O2       0.91250    0.93860    0.41413   1.00
O2       0.02610    0.08750    0.41413   1.00
O2       0.08695    -0.07161   0.38819   1.00
O2       0.99538    0.87978    0.34890   1.00
O2       0.12587    0.01926    0.34929   1.00
O2       0.84144    0.91305    0.38819   1.00
O2       0.89340    0.87413    0.34929   1.00
O2       0.88441    0.00462    0.34890   1.00
O2       0.07161    0.15856    0.38819   1.00
O2       0.12022    0.11559    0.34890   1.00
O2       0.98074    0.10660    0.34929   1.00
C1       0.08610    -0.06020   0.40642   1.00
C1       0.85370    0.91390    0.40642   1.00
C1       0.06020    0.14630    0.40642   1.00
C1       0.93337    0.85603    0.34327   1.00
C1       0.14397    0.07733    0.34327   1.00
C1       0.92267    0.06663    0.34327   1.00
O1       0.00000    0.00000    0.12500   1.00
Zn1      0.00000    0.00000    0.09589   1.00
Zn1      -0.04288   0.05152    0.13392   1.00
Zn1      0.94848    0.90561    0.13392   1.00
Zn1      0.09439    1.04288    0.13392   1.00
O2       -0.02610   0.06140    0.08587   1.00
O2       0.93860    0.91250    0.08587   1.00
O2       0.08750    0.02610    0.08587   1.00
O2       -0.07161   0.08695    0.11181   1.00
O2       0.87978    0.99538    0.15110   1.00
O2       0.01926    0.12587    0.15071   1.00
O2       0.91305    0.84144    0.11181   1.00
O2       0.87413    0.89340    0.15071   1.00
O2       0.00462    0.88441    0.15110   1.00
O2       0.15856    0.07161    0.11181   1.00
O2       0.11559    0.12022    0.15110   1.00
O2       0.10660    0.98074    0.15071   1.00
C1       -0.06020   0.08610    0.09358   1.00
C1       0.91390    0.85370    0.09358   1.00
C1       0.14630    0.06020    0.09358   1.00
C1       0.85603    0.93337    0.15673   1.00
C1       0.07733    0.14397    0.15673   1.00
C1       0.06663    0.92267    0.15673   1.00
O1       0.66667    0.33333    0.95833   1.00
Zn1      0.66667    0.33333    0.92922   1.00
Zn1      0.61515    0.37621    0.96725   1.00
Zn1      0.76106    0.38485    0.96725   1.00
Zn1      -0.37621   0.23894    0.96725   1.00
O2       0.60527    0.35943    0.91920   1.00
O2       0.75417    0.39473    0.91920   1.00
O2       0.64057    0.24583    0.91920   1.00
O2       0.57972    0.40494    0.94514   1.00
O2       0.67129    0.45355    0.98443   1.00
O2       0.54080    0.31407    0.98404   1.00
O2       0.82523    0.42028    0.94514   1.00
O2       0.77327    0.45920    0.98404   1.00
O2       -0.21774   0.32871    0.98443   1.00
O2       0.59506    0.17477    0.94514   1.00
O2       0.54645    0.21774    0.98443   1.00
O2       -0.31407   0.22673    0.98404   1.00
C1       0.58057    0.39353    0.92691   1.00
C1       0.81297    0.41943    0.92691   1.00
C1       0.60647    0.18703    0.92691   1.00
C1       0.73330    0.47730    0.99006   1.00
C1       0.52270    0.25600    0.99006   1.00
C1       -0.25600   0.26670    0.99006   1.00
O1       0.66667    0.33333    0.20833   1.00
Zn1      0.66667    0.33333    0.23744   1.00
Zn1      0.70954    0.28182    0.19942   1.00
Zn1      0.71818    0.42773    0.19942   1.00
Zn1      0.57227    0.29046    0.19942   1.00
O2       0.69277    0.27193    0.24746   1.00
O2       0.72807    0.42083    0.24746   1.00
O2       0.57917    0.30723    0.24746   1.00
O2       0.73828    0.24638    0.22152   1.00
O2       0.78688    0.33796    0.18224   1.00
O2       0.64740    0.20747    0.18263   1.00
O2       0.75362    0.49189    0.22152   1.00
O2       0.79253    0.43994    0.18263   1.00
O2       0.66204    0.44893    0.18224   1.00
O2       0.50811    0.26172    0.22152   1.00
O2       0.55107    0.21312    0.18224   1.00
O2       0.56006    0.35260    0.18263   1.00
C1       0.72687    0.24723    0.23975   1.00
C1       0.75277    0.47963    0.23975   1.00
C1       0.52037    0.27313    0.23975   1.00
C1       0.81063    0.39997    0.17661   1.00
C1       0.58933    0.18937    0.17661   1.00
C1       0.60003    0.41067    0.17661   1.00
O1       0.66667    0.33333    0.70833   1.00
Zn1      0.66667    0.33333    0.73744   1.00
Zn1      0.71818    0.29046    0.69942   1.00
Zn1      0.57227    0.28182    0.69942   1.00
Zn1      0.70954    0.42773    0.69942   1.00
O2       0.72807    0.30723    0.74746   1.00
O2       0.57917    0.27193    0.74746   1.00
O2       0.69277    0.42083    0.74746   1.00
O2       0.75362    0.26172    0.72152   1.00
O2       0.66204    0.21312    0.68224   1.00
O2       0.79253    0.35260    0.68263   1.00
O2       0.50811    0.24638    0.72152   1.00
O2       0.56006    0.20747    0.68263   1.00
O2       0.55107    0.33796    0.68224   1.00
O2       0.73828    0.49189    0.72152   1.00
O2       0.78688    0.44893    0.68224   1.00
O2       0.64740    0.43994    0.68263   1.00
C1       0.75277    0.27313    0.73975   1.00
C1       0.52037    0.24723    0.73975   1.00
C1       0.72687    0.47963    0.73975   1.00
C1       0.60003    0.18937    0.67661   1.00
C1       0.81063    0.41067    0.67661   1.00
C1       0.58933    0.39997    0.67661   1.00
O1       0.66667    0.33333    0.45833   1.00
Zn1      0.66667    0.33333    0.42922   1.00
Zn1      -0.37621   0.38485    0.46725   1.00
Zn1      0.61515    0.23894    0.46725   1.00
Zn1      0.76106    0.37621    0.46725   1.00
O2       0.64057    0.39473    0.41920   1.00
O2       0.60527    0.24583    0.41920   1.00
O2       0.75417    0.35943    0.41920   1.00
O2       0.59506    0.42028    0.44514   1.00
O2       0.54645    0.32871    0.48443   1.00
O2       -0.31407   0.45920    0.48404   1.00
O2       0.57972    0.17477    0.44514   1.00
O2       0.54080    0.22673    0.48404   1.00
O2       0.67129    0.21774    0.48443   1.00
O2       0.82523    0.40494    0.44514   1.00
O2       -0.21774   0.45355    0.48443   1.00
O2       0.77327    0.31407    0.48404   1.00
C1       0.60647    0.41943    0.42691   1.00
C1       0.58057    0.18703    0.42691   1.00
C1       0.81297    0.39353    0.42691   1.00
C1       0.52270    0.26670    0.49006   1.00
C1       -0.25600   0.47730    0.49006   1.00
C1       0.73330    0.25600    0.49006   1.00
O1       0.33333    0.66667    0.29167   1.00
Zn1      0.33333    0.66667    0.26256   1.00
Zn1      0.28182    0.70954    0.30058   1.00
Zn1      0.42773    0.71818    0.30058   1.00
Zn1      0.29046    0.57227    0.30058   1.00
O2       0.27193    0.69277    0.25254   1.00
O2       0.42083    0.72807    0.25254   1.00
O2       0.30723    0.57917    0.25254   1.00
O2       0.24638    0.73828    0.27848   1.00
O2       0.33796    0.78688    0.31776   1.00
O2       0.20747    0.64740    0.31737   1.00
O2       0.49189    0.75362    0.27848   1.00
O2       0.43994    0.79253    0.31737   1.00
O2       0.44893    0.66204    0.31776   1.00
O2       0.26172    0.50811    0.27848   1.00
O2       0.21312    0.55107    0.31776   1.00
O2       0.35260    0.56006    0.31737   1.00
C1       0.24723    0.72687    0.26025   1.00
C1       0.47963    0.75277    0.26025   1.00
C1       0.27313    0.52037    0.26025   1.00
C1       0.39997    0.81063    0.32339   1.00
C1       0.18937    0.58933    0.32339   1.00
C1       0.41067    0.60003    0.32339   1.00
O1       0.33333    0.66667    0.54167   1.00
Zn1      0.33333    0.66667    0.57078   1.00
Zn1      0.37621    0.61515    0.53275   1.00
Zn1      0.38485    0.76106    0.53275   1.00
Zn1      0.23894    -0.37621   0.53275   1.00
O2       0.35943    0.60527    0.58080   1.00
O2       0.39473    0.75417    0.58080   1.00
O2       0.24583    0.64057    0.58080   1.00
O2       0.40494    0.57972    0.55486   1.00
O2       0.45355    0.67129    0.51557   1.00
O2       0.31407    0.54080    0.51596   1.00
O2       0.42028    0.82523    0.55486   1.00
O2       0.45920    0.77327    0.51596   1.00
O2       0.32871    -0.21774   0.51557   1.00
O2       0.17477    0.59506    0.55486   1.00
O2       0.21774    0.54645    0.51557   1.00
O2       0.22673    -0.31407   0.51596   1.00
C1       0.39353    0.58057    0.57309   1.00
C1       0.41943    0.81297    0.57309   1.00
C1       0.18703    0.60647    0.57309   1.00
C1       0.47730    0.73330    0.50994   1.00
C1       0.25600    0.52270    0.50994   1.00
C1       0.26670    -0.25600   0.50994   1.00
O1       0.33333    0.66667    0.04167   1.00
Zn1      0.33333    0.66667    0.07078   1.00
Zn1      0.38485    -0.37621   0.03275   1.00
Zn1      0.23894    0.61515    0.03275   1.00
Zn1      0.37621    0.76106    0.03275   1.00
O2       0.39473    0.64057    0.08080   1.00
O2       0.24583    0.60527    0.08080   1.00
O2       0.35943    0.75417    0.08080   1.00
O2       0.42028    0.59506    0.05486   1.00
O2       0.32871    0.54645    0.01557   1.00
O2       0.45920    -0.31407   0.01596   1.00
O2       0.17477    0.57972    0.05486   1.00
O2       0.22673    0.54080    0.01596   1.00
O2       0.21774    0.67129    0.01557   1.00
O2       0.40494    0.82523    0.05486   1.00
O2       0.45355    -0.21774   0.01557   1.00
O2       0.31407    0.77327    0.01596   1.00
C1       0.41943    0.60647    0.07309   1.00
C1       0.18703    0.58057    0.07309   1.00
C1       0.39353    0.81297    0.07309   1.00
C1       0.26670    0.52270    0.00994   1.00
C1       0.47730    -0.25600   0.00994   1.00
C1       0.25600    0.73330    0.00994   1.00
O1       0.33333    0.66667    0.79167   1.00
Zn1      0.33333    0.66667    0.76256   1.00
Zn1      0.29046    0.71818    0.80058   1.00
Zn1      0.28182    0.57227    0.80058   1.00
Zn1      0.42773    0.70954    0.80058   1.00
O2       0.30723    0.72807    0.75254   1.00
O2       0.27193    0.57917    0.75254   1.00
O2       0.42083    0.69277    0.75254   1.00
O2       0.26172    0.75362    0.77848   1.00
O2       0.21312    0.66204    0.81776   1.00
O2       0.35260    0.79253    0.81737   1.00
O2       0.24638    0.50811    0.77848   1.00
O2       0.20747    0.56006    0.81737   1.00
O2       0.33796    0.55107    0.81776   1.00
O2       0.49189    0.73828    0.77848   1.00
O2       0.44893    0.78688    0.81776   1.00
O2       0.43994    0.64740    0.81737   1.00
C1       0.27313    0.75277    0.76025   1.00
C1       0.24723    0.52037    0.76025   1.00
C1       0.47963    0.72687    0.76025   1.00
C1       0.18937    0.60003    0.82339   1.00
C1       0.41067    0.81063    0.82339   1.00
C1       0.39997    0.58933    0.82339   1.00
C5       0.11602    0.94437    0.55170   1.00
H2       0.09266    0.97711    0.55332   1.00
H2       0.12671    0.94418    0.53527   1.00
C5       0.18308    0.97535    0.56405   1.00
H2       0.22582    1.01710    0.55541   1.00
H2       0.19624    0.93525    0.56759   1.00
O_3      -0.10135   0.59283    0.54909   1.00
C4       -0.14236   0.69143    0.54974   1.00
C3c      -0.08342   0.75399    0.54560   1.00
H1       -0.05871   0.76220    0.53101   1.00
C3d      -0.17432   0.68214    0.56874   1.00
C3       -0.05491   0.80638    0.56020   1.00
O2       -0.00226   0.86893    0.55423   1.00
C3       -0.14534   0.73371    0.58344   1.00
H1       -0.17028   0.72334    0.59805   1.00
C2       -0.08533   0.79701    0.57959   1.00
C5       -0.13300   0.54305    0.56439   1.00
H2       -0.15967   0.49025    0.55812   1.00
H2       -0.17092   0.55093    0.57301   1.00
C5       -0.07764   0.54981    0.57882   1.00
H2       -0.04972   0.60312    0.58465   1.00
H2       -0.04043   0.54122    0.57010   1.00
C5       -0.10806   0.49893    0.59641   1.00
H2       -0.13642   0.44561    0.59069   1.00
H2       -0.14343   0.50898    0.60555   1.00
H2       -0.06670   0.50360    0.60654   1.00
C5       -0.29026   0.61671    0.56765   1.00
C5       0.06095    0.87313    0.55846   1.00
H2       -0.29159   0.62075    0.55086   1.00
H2       -0.29667   0.65806    0.57462   1.00
H2       0.06551    0.83329    0.54977   1.00
H2       0.06713    0.86531    0.57491   1.00
H2       0.17861    0.99862    0.57851   1.00
H2       -0.41391   0.52095    0.54689   1.00
H2       -0.42736   0.57328    0.56513   1.00
C2       -0.22707   0.52748    0.50683   1.00
C3       -0.24567   0.57837    0.50618   1.00
O2       -0.30257   0.56764    0.49548   1.00
C3       -0.17775   0.53408    0.52122   1.00
H1       -0.16112   0.49694    0.52176   1.00
C3a      -0.21635   0.63308    0.52007   1.00
H1       -0.23400   0.66949    0.52014   1.00
C3b      -0.15033   0.58735    0.53544   1.00
C4       -0.16965   0.63733    0.53498   1.00
O_3      -0.22940   0.61976    0.57412   1.00
C5       -0.28314   0.60259    0.47679   1.00
H2       -0.24949   0.65863    0.47909   1.00
C5       -0.34867   0.58914    0.46605   1.00
H2       -0.25566   0.58359    0.46717   1.00
H2       -0.36553   0.62352    0.47268   1.00
H2       -0.38889   0.53608    0.46983   1.00
C5       -0.34014   0.59887    0.44288   1.00
H2       -0.29632   0.65021    0.43941   1.00
H2       -0.38694   0.59431    0.43583   1.00
H2       -0.33175   0.55896    0.43567   1.00
C5       -0.34931   0.54795    0.57421   1.00
H2       -0.35509   0.54862    0.59097   1.00
H2       -0.33554   0.50812    0.57084   1.00
C5       -0.41620   0.53096    0.56336   1.00
H2       -0.45934   0.48418    0.57003   1.00
C5       0.13335    0.26982    0.57620   1.00
H2       0.08522    0.22212    0.57263   1.00
H2       0.14390    0.30383    0.56291   1.00
C5       0.12336    0.30266    0.59552   1.00
H2       0.09760    0.33225    0.59182   1.00
H2       0.17363    0.33736    0.60264   1.00
O_3      0.43890    0.27353    0.55996   1.00
C4       0.30831    0.16629    0.54965   1.00
C3c      0.26443    0.19312    0.55132   1.00
H1       0.27097    0.23377    0.54131   1.00
C3d      0.29830    0.11266    0.56264   1.00
C3       0.21232    0.16884    0.56601   1.00
O2       0.16631    0.19166    0.56511   1.00
C3       0.24729    0.08927    0.57755   1.00
H1       0.24310    0.04974    0.58764   1.00
C2       0.20295    0.11634    0.57959   1.00
C5       0.47641    0.25147    0.57169   1.00
H2       0.52694    0.26639    0.56481   1.00
H2       0.44778    0.19493    0.57358   1.00
C5       0.48815    0.28486    0.59242   1.00
H2       0.43773    0.27152    0.59905   1.00
H2       0.51731    0.34126    0.59036   1.00
C5       0.52668    0.26162    0.60644   1.00
H2       0.57687    0.27435    0.59984   1.00
H2       0.49652    0.20562    0.60907   1.00
H2       0.53609    0.28770    0.62137   1.00
C5       0.32213    0.03550    0.54813   1.00
C5       0.18792    0.24900    0.57789   1.00
H2       0.32270    0.05474    0.53257   1.00
H2       0.26982    -0.00751   0.55143   1.00
H2       0.23827    0.29147    0.57270   1.00
H2       0.19391    0.23773    0.59404   1.00
H2       0.08994    0.26298    0.60677   1.00
H2       0.38385    -0.00293   0.51626   1.00
H2       0.31207    -0.07595   0.52816   1.00
C2       0.47244    0.24310    0.50683   1.00
C3       0.40650    0.19178    0.50099   1.00
O2       0.39733    0.15418    0.48361   1.00
C3       0.48171    0.27033    0.52665   1.00
H1       0.53116    0.31089    0.53141   1.00
C3a      0.35235    0.16783    0.51505   1.00
H1       0.30308    0.12585    0.51073   1.00
C3b      0.42825    0.24490    0.54080   1.00
C4       0.36297    0.19315    0.53508   1.00
O_3      0.34325    0.08803    0.56265   1.00
C5       0.37249    0.17776    0.46779   1.00
H2       0.32270    0.17353    0.47194   1.00
C5       0.36262    0.13297    0.44927   1.00
H2       0.40953    0.23198    0.46404   1.00
H2       0.31377    0.08405    0.45108   1.00
H2       0.40405    0.12003    0.44951   1.00
C5       0.36324    0.16766    0.42908   1.00
H2       0.32526    0.18504    0.42972   1.00
H2       0.35024    0.13157    0.41615   1.00
H2       0.41487    0.21213    0.42579   1.00
C5       0.37219    0.00920    0.54895   1.00
H2       0.36313    -0.02046   0.56322   1.00
H2       0.42477    0.05390    0.54990   1.00
C5       0.36580    -0.03457   0.53031   1.00
H2       0.39779    -0.05861   0.53242   1.00
C5       0.74270    0.04210    0.63120   1.00
H2       0.73567    -0.00929   0.62822   1.00
H2       0.69151    0.03683    0.62939   1.00
C5       0.76908    0.06418    0.65312   1.00
H2       0.72630    0.04085    0.66420   1.00
H2       0.79499    0.12069    0.65447   1.00
O_3      0.86741    0.27880    0.55257   1.00
C4       0.83290    0.14118    0.54963   1.00
C3c      0.79623    0.10957    0.56735   1.00
H1       0.74756    0.10623    0.57006   1.00
C3d      0.89575    0.14414    0.54626   1.00
C3       0.82193    0.08277    0.58193   1.00
O2       0.77959    0.04534    0.59762   1.00
C3       0.92209    0.11866    0.56093   1.00
H1       0.97160    0.12425    0.55802   1.00
C2       0.88602    0.08720    0.57904   1.00
C5       0.93386    0.32403    0.54543   1.00
H2       0.93425    0.35912    0.53350   1.00
H2       0.95802    0.29559    0.53901   1.00
C5       0.97587    0.36649    0.56333   1.00
H2       0.97390    0.33134    0.57548   1.00
H2       0.95164    0.39513    0.56950   1.00
C5       1.04983    0.41560    0.55703   1.00
H2       1.05215    0.45053    0.54480   1.00
H2       1.07480    0.38695    0.55153   1.00
H2       1.07936    0.44724    0.57021   1.00
C5       0.91764    0.13506    0.51298   1.00
C5       0.79073    0.08810    0.61453   1.00
H2       0.86387    0.11645    0.50843   1.00
H2       0.92395    0.09014    0.51619   1.00
H2       0.77853    0.12869    0.61051   1.00
H2       0.84482    0.11404    0.61991   1.00
H2       0.80546    0.04659    0.65754   1.00
H2       0.88965    0.13882    0.47040   1.00
H2       0.92701    0.08566    0.47568   1.00
C2       0.76113    0.23043    0.50584   1.00
C3       0.74023    0.16041    0.50469   1.00
O2       0.71134    0.12422    0.48713   1.00
C3       0.80311    0.26881    0.52225   1.00
H1       0.81854    0.32210    0.52385   1.00
C3a      0.76286    0.13104    0.51945   1.00
H1       0.74961    0.07834    0.51771   1.00
C3b      0.82730    0.23997    0.53653   1.00
C4       0.80735    0.17062    0.53518   1.00
O_3      0.93620    0.17922    0.52983   1.00
C5       0.63994    0.08426    0.48933   1.00
H2       0.62594    0.04732    0.50212   1.00
C5       0.61203    0.04504    0.46945   1.00
H2       0.61689    0.11698    0.49214   1.00
H2       0.61994    0.00031    0.46952   1.00
H2       0.64390    0.07888    0.45689   1.00
C5       0.53616    0.02195    0.46600   1.00
H2       0.50588    -0.00721   0.47941   1.00
H2       0.51626    -0.01117   0.45233   1.00
H2       0.52858    0.06648    0.46332   1.00
C5       0.96417    0.17538    0.49545   1.00
H2       1.01615    0.18378    0.49858   1.00
H2       0.96845    0.22658    0.49512   1.00
C5       0.93724    0.13906    0.47497   1.00
H2       0.97577    0.16615    0.46291   1.00
C5       0.68545    -0.11405   0.86310   1.00
H2       0.72028    -0.05798   0.86311   1.00
H2       0.63298    -0.12184   0.86268   1.00
C5       0.69904    -0.14535   0.84404   1.00
H2       0.67269    -0.13971   0.83055   1.00
H2       0.68059    -0.20048   0.84657   1.00
O_3      0.61499    -0.28331   0.95577   1.00
C4       0.69158    -0.14108   0.95033   1.00
C3c      0.67980    -0.12912   0.93023   1.00
H1       0.62911    -0.14133   0.92563   1.00
C3d      0.75820    -0.12391   0.95608   1.00
C3       0.73257    -0.10232   0.91574   1.00
O2       0.71912    -0.08427   0.89710   1.00
C3       0.81059    -0.09843   0.94159   1.00
H1       0.86031    -0.08828   0.94654   1.00
C2       0.79939    -0.08673   0.92115   1.00
C5       0.64971    -0.30869   0.96745   1.00
H2       0.61921    -0.33882   0.98077   1.00
H2       0.69940    -0.26636   0.97311   1.00
C5       0.66301    -0.35502   0.95388   1.00
H2       0.69184    -0.32544   0.94028   1.00
H2       0.61305    -0.39743   0.94847   1.00
C5       0.70292    -0.38304   0.96522   1.00
H2       0.67463    -0.41224   0.97890   1.00
H2       0.75379    -0.34087   0.97001   1.00
H2       0.71084    -0.41797   0.95520   1.00
C5       0.78563    -0.08521   0.98859   1.00
C5       0.69789    -0.13915   0.88335   1.00
H2       0.74113    -0.07732   0.99004   1.00
H2       0.83063    -0.03654   0.98344   1.00
H2       0.64989    -0.18425   0.88884   1.00
H2       0.73674    -0.15550   0.88149   1.00
H2       0.75458    -0.11867   0.84023   1.00
H2       0.74592    -0.06860   1.02888   1.00
H2       0.83244    -0.00339   1.02247   1.00
C2       0.53173    -0.22958   0.99449   1.00
C3       0.56705    -0.15841   0.99127   1.00
O2       0.56307    -0.11537   1.00532   1.00
C3       0.54822    -0.27045   0.98216   1.00
H1       0.52091    -0.32524   0.98390   1.00
C3a      0.61861    -0.12980   0.97636   1.00
H1       0.64782    -0.07493   0.97487   1.00
C3b      0.60099    -0.24166   0.96780   1.00
C4       0.63677    -0.17082   0.96483   1.00
O_3      0.77143    -0.13944   0.97525   1.00
C5       0.51781    -0.09382   0.99850   1.00
H2       0.53492    -0.06619   0.98373   1.00
C5       0.51713    -0.04564   1.01467   1.00
H2       0.46530    -0.13807   0.99659   1.00
H2       0.56333    0.00542    1.01262   1.00
H2       0.52242    -0.06490   1.02971   1.00
C5       0.45206    -0.03998   1.01400   1.00
H2       0.44472    -0.02594   0.99843   1.00
H2       0.45596    -0.00033   1.02478   1.00
H2       0.40606    -0.08894   1.01857   1.00
C5       0.80106    -0.10396   1.00932   1.00
H2       0.85195    -0.10026   1.00866   1.00
H2       0.76292    -0.15837   1.01240   1.00
C5       0.79897    -0.05824   1.02626   1.00
H2       0.81734    -0.06855   1.04073   1.00
C5       0.27004    0.13362    0.92371   1.00
H2       0.22239    0.08546    0.92730   1.00
H2       0.30411    0.14422    0.93699   1.00
C5       0.30284    0.12369    0.90437   1.00
H2       0.33251    0.09799    0.90805   1.00
H2       0.33746    0.17397    0.89725   1.00
O_3      0.27338    0.43896    0.94001   1.00
C4       0.16629    0.30831    0.95035   1.00
C3c      0.19319    0.26450    0.94866   1.00
H1       0.23391    0.27109    0.95865   1.00
C3d      0.11259    0.29822    0.93738   1.00
C3       0.16892    0.21239    0.93396   1.00
O2       0.19183    0.16645    0.93484   1.00
C3       0.08919    0.24722    0.92248   1.00
H1       0.04959    0.24297    0.91240   1.00
C2       0.11634    0.20295    0.92041   1.00
C5       0.25120    0.47641    0.92831   1.00
H2       0.26608    0.52693    0.93519   1.00
H2       0.19465    0.44772    0.92644   1.00
C5       0.28450    0.48818    0.90757   1.00
H2       0.27120    0.43778    0.90093   1.00
H2       0.34092    0.51741    0.90960   1.00
C5       0.26114    0.52665    0.89356   1.00
H2       0.27384    0.57683    0.90017   1.00
H2       0.20513    0.49643    0.89095   1.00
H2       0.28716    0.53609    0.87863   1.00
C5       0.03539    0.32193    0.95193   1.00
C5       0.24912    0.18812    0.92205   1.00
H2       0.05470    0.32252    0.96748   1.00
H2       -0.00759   0.26959    0.94865   1.00
H2       0.29157    0.23850    0.92722   1.00
H2       0.23777    0.19409    0.90590   1.00
H2       0.26314    0.09023    0.89314   1.00
H2       -0.00302   0.38355    0.98384   1.00
H2       -0.07604   0.31172    0.97196   1.00
C2       0.24309    0.47244    0.99317   1.00
C3       0.19185    0.40647    0.99902   1.00
O2       0.15431    0.39725    1.01641   1.00
C3       0.27025    0.48173    0.97334   1.00
H1       0.31075    0.53121    0.96857   1.00
C3a      0.16791    0.35232    0.98496   1.00
H1       0.12599    0.30303    0.98929   1.00
C3b      0.24482    0.42827    0.95919   1.00
C4       0.19315    0.36297    0.96492   1.00
O_3      0.08787    0.34310    0.93740   1.00
C5       0.17801    0.37247    1.03222   1.00
H2       0.17383    0.32271    1.02806   1.00
C5       0.13328    0.36255    1.05076   1.00
H2       0.23224    0.40957    1.03595   1.00
H2       0.08439    0.31366    1.04896   1.00
H2       0.12027    0.40393    1.05053   1.00
C5       0.16807    0.36322    1.07094   1.00
H2       0.18552    0.32529    1.07027   1.00
H2       0.13203    0.35018    1.08387   1.00
H2       0.21251    0.41488    1.07421   1.00
C5       0.00899    0.37191    0.95114   1.00
H2       -0.02073   0.36281    0.93688   1.00
H2       0.05365    0.42452    0.95018   1.00
C5       -0.03472   0.36546    0.96980   1.00
H2       -0.05883   0.39739    0.96771   1.00
C5       0.04214    0.74273    0.86879   1.00
H2       -0.00925   0.73569    0.87177   1.00
H2       0.03688    0.69154    0.87060   1.00
C5       0.06422    0.76912    0.84688   1.00
H2       0.04090    0.72634    0.83580   1.00
H2       0.12073    0.79503    0.84553   1.00
O_3      0.27880    0.86743    0.94743   1.00
C4       0.14118    0.83290    0.95037   1.00
C3c      0.10958    0.79623    0.93265   1.00
H1       0.10625    0.74757    0.92994   1.00
C3d      0.14413    0.89575    0.95374   1.00
C3       0.08278    0.82193    0.91806   1.00
O2       0.04536    0.77960    0.90238   1.00
C3       0.11865    0.92208    0.93907   1.00
H1       0.12423    0.97160    0.94199   1.00
C2       0.08720    0.88602    0.92096   1.00
C5       0.32402    0.93388    0.95458   1.00
H2       0.35911    0.93426    0.96650   1.00
H2       0.29558    0.95803    0.96099   1.00
C5       0.36649    0.97589    0.93667   1.00
H2       0.33135    0.97393    0.92452   1.00
H2       0.39514    0.95168    0.93051   1.00
C5       0.41559    1.04986    0.94298   1.00
H2       0.45052    1.05217    0.95521   1.00
H2       0.38694    1.07482    0.94848   1.00
H2       0.44723    1.07939    0.92980   1.00
C5       0.13504    0.91762    0.98702   1.00
C5       0.08813    0.79075    0.88547   1.00
H2       0.11642    0.86385    0.99157   1.00
H2       0.09011    0.92392    0.98381   1.00
H2       0.12872    0.77855    0.88949   1.00
H2       0.11406    0.84484    0.88009   1.00
H2       0.04663    0.80549    0.84246   1.00
H2       0.13878    0.88961    1.02960   1.00
H2       0.08561    0.92697    1.02432   1.00
C2       0.23043    0.76113    0.99416   1.00
C3       0.16041    0.74022    0.99531   1.00
O2       0.12421    0.71132    1.01286   1.00
C3       0.26881    0.80312    0.97776   1.00
H1       0.32210    0.81856    0.97615   1.00
C3a      0.13104    0.76285    0.98055   1.00
H1       0.07834    0.74959    0.98229   1.00
C3b      0.23998    0.82731    0.96348   1.00
C4       0.17062    0.80735    0.96482   1.00
O_3      0.17920    0.93619    0.97017   1.00
C5       0.08426    0.63993    1.01067   1.00
H2       0.04732    0.62592    0.99787   1.00
C5       0.04503    0.61200    1.03054   1.00
H2       0.11699    0.61688    1.00786   1.00
H2       0.00030    0.61990    1.03047   1.00
H2       0.07887    0.64387    1.04310   1.00
C5       0.02196    0.53613    1.03399   1.00
H2       -0.00720   0.50585    1.02058   1.00
H2       -0.01117   0.51622    1.04766   1.00
H2       0.06649    0.52856    1.03667   1.00
C5       0.17534    0.96414    1.00455   1.00
H2       0.18374    1.01612    1.00142   1.00
H2       0.22654    0.96843    1.00489   1.00
C5       0.13902    0.93720    1.02503   1.00
H2       0.16609    0.97572    1.03710   1.00
C5       -0.04347   0.01888    0.45912   1.00
H2       -0.08179   0.01738    0.44831   1.00
H2       -0.06155   0.02281    0.47446   1.00
C5       -0.04037   -0.04764   0.45724   1.00
H2       -0.08247   -0.08971   0.46598   1.00
H2       0.00932    -0.03937   0.46308   1.00
O_3      0.25394    0.32989    0.47367   1.00
C4       0.14142    0.30905    0.45012   1.00
C3c      0.08828    0.24354    0.45513   1.00
H1       0.06793    0.23313    0.47036   1.00
C3d      0.16654    0.32180    0.43010   1.00
C3       0.06128    0.19040    0.44075   1.00
O2       0.00399    0.13020    0.44603   1.00
C3       0.14066    0.26867    0.41586   1.00
H1       0.16318    0.28026    0.40089   1.00
C2       0.08743    0.20193    0.42072   1.00
C5       0.31611    0.36421    0.46293   1.00
H2       0.35485    0.41089    0.47100   1.00
H2       0.30837    0.37945    0.44750   1.00
C5       0.34357    0.31549    0.46086   1.00
H2       0.30407    0.26804    0.45330   1.00
H2       0.35170    0.30111    0.47635   1.00
C5       0.41019    0.34804    0.44868   1.00
H2       0.44971    0.39571    0.45606   1.00
H2       0.40162    0.36024    0.43298   1.00
H2       0.43027    0.31225    0.44770   1.00
C5       0.19966    0.42918    0.41883   1.00
C5       0.02310    0.08430    0.45408   1.00
H2       0.17336    0.43913    0.43150   1.00
H2       0.16422    0.40903    0.40562   1.00
H2       0.05423    0.10606    0.46809   1.00
H2       0.05424    0.07321    0.44321   1.00
H2       -0.04689   -0.06533   0.44114   1.00
H2       0.23637    0.56897    0.42662   1.00
H2       0.20222    0.54075    0.40128   1.00
C2       0.23083    0.47062    0.49373   1.00
C3       0.17220    0.45884    0.48286   1.00
O2       0.15323    0.50800    0.48224   1.00
C3       0.25668    0.42594    0.49056   1.00
H1       0.30042    0.43250    0.49903   1.00
C3a      0.14212    0.40452    0.46885   1.00
H1       0.09964    0.39856    0.45981   1.00
C3b      0.22797    0.37332    0.47615   1.00
C4       0.17033    0.36232    0.46512   1.00
O_3      0.22220    0.38389    0.42481   1.00
C5       0.09848    0.49094    0.49566   1.00
H2       0.05324    0.44077    0.49163   1.00
C5       0.07982    0.54703    0.49383   1.00
H2       0.11343    0.48845    0.51161   1.00
H2       0.04816    0.53724    0.47997   1.00
H2       0.12802    0.59606    0.49124   1.00
C5       0.04217    0.55206    0.51266   1.00
H2       -0.00282   0.50131    0.51596   1.00
H2       0.02444    0.58930    0.51008   1.00
H2       0.07639    0.57038    0.52622   1.00
C5       0.26229    0.49612    0.41281   1.00
H2       0.28168    0.48856    0.39808   1.00
H2       0.30292    0.50840    0.42429   1.00
C5       0.24676    0.55486    0.41135   1.00
H2       0.29138    0.60090    0.40491   1.00
C5       0.73266    0.70537    0.37984   1.00
H2       0.73698    0.74496    0.36903   1.00
H2       0.67886    0.66335    0.37893   1.00
C5       0.78163    0.67975    0.37330   1.00
H2       0.75860    0.64112    0.36099   1.00
H2       0.79322    0.65651    0.38648   1.00
O_3      0.68928    0.75020    0.48209   1.00
C4       0.69110    0.83360    0.45016   1.00
C3c      0.68547    0.79761    0.43224   1.00
H1       0.63953    0.74966    0.42932   1.00
C3d      0.75100    0.89647    0.45353   1.00
C3       0.73897    0.82214    0.41800   1.00
O2       0.72659    0.78850    0.39974   1.00
C3       0.80488    0.92039    0.43957   1.00
H1       0.85076    0.96764    0.44316   1.00
C2       0.80033    0.88426    0.42148   1.00
C5       0.73532    0.78773    0.49779   1.00
H2       0.70978    0.77745    0.51287   1.00
H2       0.76064    0.84367    0.49481   1.00
C5       0.78918    0.76650    0.49858   1.00
H2       0.81339    0.77498    0.48334   1.00
H2       0.76342    0.71072    0.50175   1.00
C5       0.84294    0.80682    0.51484   1.00
H2       0.81905    0.79896    0.53007   1.00
H2       0.87033    0.86231    0.51131   1.00
H2       0.88102    0.78954    0.51550   1.00
C5       0.73348    0.97480    0.47012   1.00
C5       0.74708    0.73896    0.40078   1.00
H2       0.67749    0.94530    0.46749   1.00
H2       0.75768    1.01260    0.45759   1.00
H2       0.71705    0.70026    0.41264   1.00
H2       0.80228    0.76156    0.40471   1.00
H2       0.83033    0.72225    0.36707   1.00
H2       0.64842    1.00890    0.49433   1.00
H2       0.70995    1.08003    0.47906   1.00
C2       0.53340    0.75798    0.49509   1.00
C3       0.53131    0.79671    0.47861   1.00
O2       0.48961    0.82489    0.47929   1.00
C3       0.58652    0.74230    0.49574   1.00
H1       0.58856    0.71128    0.50787   1.00
C3a      0.58263    0.82013    0.46362   1.00
H1       0.58251    0.85296    0.45173   1.00
C3b      0.63869    0.76750    0.48116   1.00
C4       0.63713    0.80686    0.46496   1.00
O_3      0.76118    0.93131    0.47162   1.00
C5       0.43047    0.78575    0.46755   1.00
H2       0.44358    0.78320    0.45137   1.00
C5       0.38770    0.82080    0.46880   1.00
H2       0.40036    0.73282    0.47358   1.00
H2       0.40944    0.86470    0.45809   1.00
H2       0.39434    0.84264    0.48433   1.00
C5       0.31156    0.77213    0.46422   1.00
H2       0.30624    0.74673    0.44936   1.00
H2       0.28327    0.80057    0.46359   1.00
H2       0.28685    0.73264    0.47633   1.00
C5       0.74697    1.01287    0.49015   1.00
H2       0.80235    1.05110    0.49108   1.00
H2       0.73558    0.97579    0.50271   1.00
C5       0.70356    1.04741    0.49245   1.00
H2       0.71978    1.08038    0.50616   1.00
C5       0.23486    0.13692    0.43508   1.00
H2       0.24838    0.13657    0.41890   1.00
H2       0.28380    0.16018    0.44355   1.00
C5       0.20024    0.18061    0.43752   1.00
H2       0.23903    0.23584    0.43825   1.00
H2       0.16910    0.16587    0.45163   1.00
O_3      0.11812    -0.16339   0.49016   1.00
C4       0.16721    -0.14203   0.45005   1.00
C3c      0.19899    -0.07139   0.44679   1.00
H1       0.24381    -0.03732   0.45545   1.00
C3d      0.10944    -0.18559   0.43839   1.00
C3       0.17316    -0.04353   0.43260   1.00
O2       0.21158    0.02510    0.42846   1.00
C3       0.08283    -0.15794   0.42453   1.00
H1       0.03704    -0.19320   0.41645   1.00
C2       0.11390    -0.08657   0.42120   1.00
C5       0.05341    -0.22242   0.49219   1.00
H2       0.05306    -0.25785   0.50399   1.00
H2       0.03637    -0.25084   0.47756   1.00
C5       0.00323    -0.19971   0.49841   1.00
H2       0.00498    -0.16282   0.48691   1.00
H2       0.02039    -0.17197   0.51313   1.00
C5       -0.06923   -0.26085   0.50027   1.00
H2       -0.07124   -0.29812   0.51162   1.00
H2       -0.08730   -0.28718   0.48541   1.00
H2       -0.10490   -0.24340   0.50526   1.00
C5       0.10146    -0.28747   0.43059   1.00
C5       0.19048    0.06183    0.44099   1.00
H2       0.15528    -0.26924   0.43500   1.00
H2       0.09968    -0.27869   0.41400   1.00
H2       0.19853    0.05437    0.45727   1.00
H2       0.13524    0.04512    0.43902   1.00
H2       0.16686    0.17427    0.42423   1.00
H2       0.14165    -0.38862   0.43711   1.00
H2       0.11118    -0.39040   0.41149   1.00
C2       0.23873    -0.22929   0.49458   1.00
C3       0.26670    -0.21568   0.47485   1.00
O2       0.30380    -0.24505   0.46813   1.00
C3       0.18956    -0.21034   0.49940   1.00
H1       0.16847    -0.21846   0.51452   1.00
C3a      0.24397    -0.18548   0.46039   1.00
H1       0.26300    -0.17897   0.44504   1.00
C3b      0.16548    -0.18234   0.48481   1.00
C4       0.19255    -0.16980   0.46512   1.00
O_3      0.07330    -0.25503   0.44210   1.00
C5       0.37421    -0.19722   0.46885   1.00
H2       0.38716    -0.15189   0.45916   1.00
C5       0.41155    -0.23319   0.46088   1.00
H2       0.39095    -0.17957   0.48469   1.00
H2       0.40933    -0.23385   0.44401   1.00
H2       0.38223    -0.28735   0.46592   1.00
C5       0.48610    -0.19963   0.46822   1.00
H2       0.51312    -0.14439   0.46446   1.00
H2       0.51315    -0.22352   0.46077   1.00
H2       0.48893    -0.20626   0.48493   1.00
C5       0.05942    -0.36363   0.43485   1.00
H2       0.00894    -0.38396   0.42730   1.00
H2       0.04962    -0.37082   0.45148   1.00
C5       0.09572    -0.40203   0.42767   1.00
H2       0.06080    -0.45791   0.42907   1.00
C5       0.30780    0.07185    0.13424   1.00
H2       0.28711    0.10418    0.13979   1.00
H2       0.36399    0.10288    0.13613   1.00
C5       0.27871    0.00620    0.14720   1.00
H2       0.30754    0.01604    0.16166   1.00
H2       0.28184    -0.03451   0.13864   1.00
O_3      0.34898    0.05800    0.03005   1.00
C4       0.30863    0.14241    0.04976   1.00
C3c      0.32194    0.13999    0.07045   1.00
H1       0.37390    0.16010    0.07555   1.00
C3d      0.24066    0.11681    0.04347   1.00
C3       0.26880    0.11092    0.08481   1.00
O2       0.28625    0.11787    0.10502   1.00
C3       0.18753    0.08666    0.05767   1.00
H1       0.13605    0.06553    0.05203   1.00
C2       0.20003    0.08312    0.07862   1.00
C5       0.30397    0.01903    0.01432   1.00
H2       0.33083    0.02638    -0.00043   1.00
H2       0.26320    0.03245    0.01217   1.00
C5       0.27133    -0.05562   0.02028   1.00
H2       0.24610    -0.06261   0.03530   1.00
H2       0.31242    -0.06861   0.02220   1.00
C5       0.21958    -0.10165   0.00427   1.00
H2       0.24432    -0.09458   -0.01079   1.00
H2       0.17726    -0.09033   0.00285   1.00
H2       0.19737    -0.15608   0.00867   1.00
C5       0.22875    0.17512    0.01707   1.00
C5       0.28949    0.06020    0.11168   1.00
H2       0.28149    0.21876    0.01887   1.00
H2       0.19326    0.18591    0.02596   1.00
H2       0.32957    0.05583    0.10308   1.00
H2       0.24024    0.01150    0.10945   1.00
H2       0.22445    -0.01242   0.15152   1.00
H2       0.28634    0.27034    -0.01619   1.00
H2       0.20948    0.26551    -0.00597   1.00
C2       0.46724    0.22313    0.00510   1.00
C3       0.45032    0.26705    0.01557   1.00
O2       0.47153    0.33176    0.00830   1.00
C3       0.43304    0.15326    0.01046   1.00
H1       0.44606    0.11865    0.00310   1.00
C3a      0.39906    0.24030    0.03059   1.00
H1       0.38399    0.27384    0.03765   1.00
C3b      0.38059    0.12644    0.02495   1.00
C4       0.36309    0.16996    0.03512   1.00
O_3      0.22439    0.11329    0.02311   1.00
C5       0.52803    0.38046    0.01954   1.00
H2       0.51509    0.37891    0.03594   1.00
C5       0.54762    0.45056    0.01082   1.00
H2       0.57205    0.37161    0.01811   1.00
H2       0.51216    0.46661    0.01708   1.00
H2       0.53825    0.44426    -0.00584   1.00
C5       0.62229    0.50491    0.01526   1.00
H2       0.63216    0.50668    0.03182   1.00
H2       0.63293    0.55623    0.01020   1.00
H2       0.65870    0.49390    0.00691   1.00
C5       0.20925    0.16842    -0.00526   1.00
H2       0.15328    0.13301    -0.00659   1.00
H2       0.23479    0.14401    -0.01330   1.00
C5       0.22977    0.23794    -0.01495   1.00
H2       0.20855    0.23043    -0.03054   1.00
C5       0.71731    0.71826    0.12507   1.00
H2       0.76159    0.72693    0.13449   1.00
H2       0.67943    0.66308    0.12647   1.00
C5       0.68737    0.76173    0.13336   1.00
H2       0.65334    0.73619    0.14656   1.00
H2       0.65773    0.76975    0.12129   1.00
O_3      0.73674    0.67949    0.02098   1.00
C4       0.83367    0.69118    0.04982   1.00
C3c      0.80228    0.68245    0.06881   1.00
H1       0.75799    0.63407    0.07258   1.00
C3d      0.89190    0.75429    0.04532   1.00
C3       0.82666    0.73586    0.08308   1.00
O2       0.79857    0.72105    0.10221   1.00
C3       0.91552    0.80799    0.05934   1.00
H1       0.95887    0.85621    0.05494   1.00
C2       0.88393    0.80027    0.07853   1.00
C5       0.76612    0.72648    0.00488   1.00
H2       0.75337    0.70091    -0.01023   1.00
H2       0.82279    0.75647    0.00632   1.00
C5       0.73795    0.77483    0.00581   1.00
H2       0.74901    0.79895    0.02111   1.00
H2       0.68144    0.74442    0.00417   1.00
C5       0.76925    0.82936    -0.01080   1.00
H2       0.75881    0.80561    -0.02611   1.00
H2       0.82541    0.86128    -0.00876   1.00
H2       0.74694    0.86330    -0.01016   1.00
C5       0.97040    0.74588    0.02574   1.00
C5       0.74431    0.73491    0.10330   1.00
H2       0.94637    0.69005    0.02838   1.00
H2       1.01123    0.77311    0.03729   1.00
H2       0.70336    0.70210    0.09234   1.00
H2       0.76081    0.78921    0.09960   1.00
H2       0.72855    0.81236    0.13895   1.00
H2       1.00750    0.66888    -0.00111   1.00
H2       1.08003    0.73494    0.01268   1.00
C2       0.75740    0.53329    0.00494   1.00
C3       0.80324    0.53600    0.01993   1.00
O2       0.83690    0.49980    0.01749   1.00
C3       0.73515    0.58156    0.00582   1.00
H1       0.69873    0.57976    -0.00511   1.00
C3a      0.82693    0.58726    0.03494   1.00
H1       0.86497    0.59104    0.04560   1.00
C3b      0.76048    0.63379    0.02037   1.00
C4       0.80685    0.63707    0.03506   1.00
O_3      0.92155    0.76717    0.02629   1.00
C5       0.80600    0.44021    0.02947   1.00
H2       0.80700    0.45271    0.04590   1.00
C5       0.84677    0.40374    0.02621   1.00
H2       0.75201    0.40595    0.02480   1.00
H2       0.89367    0.42928    0.03570   1.00
H2       0.86401    0.41195    0.01011   1.00
C5       0.80547    0.32692    0.03111   1.00
H2       0.78416    0.31956    0.04669   1.00
H2       0.83840    0.30341    0.03021   1.00
H2       0.76306    0.29903    0.02001   1.00
C5       1.00245    0.76216    0.00471   1.00
H2       1.03620    0.81842    0.00343   1.00
H2       0.96100    0.74706    -0.00669   1.00
C5       1.04245    0.72501    0.00040   1.00
H2       1.07086    0.74349    -0.01410   1.00
C5       0.13687    0.23456    0.06484   1.00
H2       0.13661    0.24815    0.08101   1.00
H2       0.16016    0.28345    0.05635   1.00
C5       0.18046    0.19983    0.06240   1.00
H2       0.23571    0.23856    0.06165   1.00
H2       0.16563    0.16863    0.04830   1.00
O_3      -0.16361   0.11795    0.00986   1.00
C4       -0.14203   0.16721    0.04995   1.00
C3c      -0.07138   0.19892    0.05319   1.00
H1       -0.03731   0.24368    0.04450   1.00
C3d      -0.18560   0.10952    0.06163   1.00
C3       -0.04352   0.17309    0.06738   1.00
O2       0.02513    0.21146    0.07149   1.00
C3       -0.15795   0.08290    0.07550   1.00
H1       -0.19322   0.03716    0.08359   1.00
C2       -0.08658   0.11390    0.07880   1.00
C5       -0.22271   0.05327    0.00786   1.00
H2       -0.25815   0.05292    -0.00394   1.00
H2       -0.25107   0.03632    0.02250   1.00
C5       -0.20011   0.00299    0.00164   1.00
H2       -0.16320   0.00473    0.01313   1.00
H2       -0.17243   0.02006    -0.01308   1.00
C5       -0.26132   -0.06944   -0.00018   1.00
H2       -0.29862   -0.07145   -0.01153   1.00
H2       -0.28760   -0.08743   0.01469   1.00
H2       -0.24397   -0.10519   -0.00516   1.00
C5       -0.28738   0.10172    0.06946   1.00
C5       0.06175    0.19023    0.05896   1.00
H2       -0.26910   0.15553    0.06503   1.00
H2       -0.27854   0.09999    0.08605   1.00
H2       0.05424    0.19823    0.04267   1.00
H2       0.04498    0.13497    0.06094   1.00
H2       0.17413    0.16649    0.07569   1.00
H2       -0.38841   0.14207    0.06295   1.00
H2       -0.39013   0.11168    0.08859   1.00
C2       -0.22930   0.23873    0.00542   1.00
C3       -0.21557   0.26678    0.02515   1.00
O2       -0.24484   0.30399    0.03186   1.00
C3       -0.21046   0.18947    0.00061   1.00
H1       -0.21866   0.16832    -0.01450   1.00
C3a      -0.18537   0.24405    0.03960   1.00
H1       -0.17877   0.26315    0.05495   1.00
C3b      -0.18245   0.16539    0.01520   1.00
C4       -0.16981   0.19255    0.03488   1.00
O_3      -0.25506   0.07343    0.05795   1.00
C5       -0.19694   0.37437    0.03111   1.00
H2       -0.15158   0.38731    0.04079   1.00
C5       -0.23279   0.41183    0.03908   1.00
H2       -0.17934   0.39103    0.01526   1.00
H2       -0.23339   0.40968    0.05595   1.00
H2       -0.28698   0.38255    0.03406   1.00
C5       -0.19917   0.48636    0.03172   1.00
H2       -0.14392   0.51333    0.03545   1.00
H2       -0.22298   0.51349    0.03915   1.00
H2       -0.20587   0.48913    0.01500   1.00
C5       -0.36356   0.05974    0.06523   1.00
H2       -0.38392   0.00929    0.07280   1.00
H2       -0.37082   0.04988    0.04861   1.00
C5       -0.40184   0.09616    0.07241   1.00
H2       -0.45775   0.06129    0.07103   1.00
C5       0.67516    1.31790    0.87353   1.00
H2       0.63956    1.32668    0.88292   1.00
H2       0.65940    1.31730    0.85754   1.00
C5       0.74901    1.37683    0.87690   1.00
H2       0.75951    1.42202    0.86756   1.00
H2       0.78596    1.36002    0.87274   1.00
O_3      0.60862    0.98414    0.86345   1.00
C4       0.52418    1.02439    0.88319   1.00
C3c      0.54902    1.09268    0.87764   1.00
H1       0.54666    1.10533    0.86196   1.00
C3d      0.52684    1.00889    0.90374   1.00
C3       0.57804    1.14563    0.89205   1.00
O2       0.59356    1.20995    0.88596   1.00
C3       0.55688    1.06162    0.91807   1.00
H1       0.55998    1.04751    0.93353   1.00
C2       0.58293    1.13104    0.91268   1.00
C5       0.62369    0.94220    0.87568   1.00
H2       0.61021    0.89303    0.86810   1.00
H2       0.59584    0.93046    0.89043   1.00
C5       0.69994    0.98070    0.87976   1.00
H2       0.71374    1.03068    0.88682   1.00
H2       0.72722    0.99158    0.86496   1.00
C5       0.72046    0.93956    0.89363   1.00
H2       0.70640    0.88938    0.88674   1.00
H2       0.69507    0.93070    0.90867   1.00
H2       0.77655    0.96784    0.89608   1.00
C5       0.43727    0.90708    0.91392   1.00
C5       0.66235    1.24718    0.87961   1.00
H2       0.40693    0.90271    0.90016   1.00
H2       0.42361    0.93207    0.92619   1.00
H2       0.67068    1.22153    0.86636   1.00
H2       0.69873    1.25161    0.89179   1.00
H2       0.75753    1.39433    0.89304   1.00
H2       0.32161    0.77507    0.90460   1.00
H2       0.31420    0.80739    0.92915   1.00
C2       0.44243    0.86206    0.83973   1.00
C3       0.39984    0.88382    0.84864   1.00
O2       0.32986    0.84343    0.84754   1.00
C3       0.51258    0.89728    0.84476   1.00
H1       0.54685    0.88302    0.83780   1.00
C3a      0.42750    0.93837    0.86260   1.00
H1       0.39352    0.95187    0.87016   1.00
C3b      0.53950    0.95007    0.85914   1.00
C4       0.49690    0.97095    0.86822   1.00
O_3      0.50783    0.94319    0.90975   1.00
C5       0.30357    0.86847    0.83255   1.00
H2       0.31623    0.92185    0.83595   1.00
C5       0.22604    0.82186    0.83252   1.00
H2       0.32424    0.86745    0.81729   1.00
H2       0.20439    0.83691    0.84535   1.00
H2       0.21528    0.76915    0.83583   1.00
C5       0.19275    0.82383    0.81231   1.00
H2       0.20843    0.87747    0.80845   1.00
H2       0.13613    0.79392    0.81345   1.00
H2       0.20741    0.80068    0.79970   1.00
C5       0.41902    0.83576    0.92081   1.00
H2       0.44004    0.83934    0.93632   1.00
H2       0.44527    0.81689    0.91061   1.00
C5       0.34152    0.78619    0.92046   1.00
H2       0.32967    0.73693    0.92754   1.00
C5       -0.04451   0.60774    0.96084   1.00
H2       -0.09180   0.60859    0.95696   1.00
H2       -0.00181   0.66020    0.95794   1.00
C5       -0.04630   0.58897    0.98349   1.00
H2       -0.03053   0.63444    0.99331   1.00
H2       -0.01140   0.56847    0.98619   1.00
O_3      0.08680    0.48017    0.88862   1.00
C4       -0.02508   0.50034    0.88295   1.00
C3c      -0.02380   0.54043    0.89938   1.00
H1       0.01852    0.59179    0.90106   1.00
C3d      -0.08117   0.43389    0.88088   1.00
C3       -0.07621   0.51487    0.91399   1.00
O2       -0.07568   0.55966    0.92820   1.00
C3       -0.13278   0.40783    0.89561   1.00
H1       -0.17355   0.35577    0.89378   1.00
C2       -0.13191   0.44743    0.91244   1.00
C5       0.07172    0.41351    0.88350   1.00
H2       0.10823    0.41346    0.87217   1.00
H2       0.01915    0.38322    0.87717   1.00
C5       0.07662    0.37945    0.90278   1.00
H2       0.04153    0.38121    0.91430   1.00
H2       0.12946    0.40975    0.90887   1.00
C5       0.05851    0.30559    0.89871   1.00
H2       0.09305    0.30342    0.88712   1.00
H2       0.00496    0.27471    0.89330   1.00
H2       0.06384    0.28202    0.91288   1.00
C5       -0.11114   0.40024    0.84807   1.00
C5       -0.04139   0.55764    0.94588   1.00
H2       -0.08001   0.45313    0.84220   1.00
H2       -0.16424   0.38965    0.85071   1.00
H2       0.01272    0.57369    0.94225   1.00
H2       -0.06515   0.50546    0.95269   1.00
H2       -0.09904   0.55027    0.98834   1.00
H2       -0.08063   0.41747    0.80521   1.00
H2       -0.17163   0.37408    0.81041   1.00
C2       0.13639    0.57241    0.83931   1.00
C3       0.08260    0.58626    0.83670   1.00
O2       0.07192    0.60738    0.81812   1.00
C3       0.13704    0.53749    0.85703   1.00
H1       0.17842    0.52767    0.85973   1.00
C3a      0.03039    0.56368    0.85139   1.00
H1       -0.01242   0.57125    0.84860   1.00
C3b      0.08392    0.51319    0.87128   1.00
C4       0.02995    0.52607    0.86851   1.00
O_3      -0.08237   0.39060    0.86586   1.00
C5       0.09723    0.67835    0.81829   1.00
H2       0.07159    0.69270    0.83019   1.00
C5       0.08246    0.69745    0.79738   1.00
H2       0.15326    0.70689    0.82112   1.00
H2       0.02807    0.68427    0.79694   1.00
H2       0.08802    0.66412    0.78602   1.00
C5       0.12972    0.77329    0.79210   1.00
H2       0.12758    0.80572    0.80441   1.00
H2       0.11377    0.78648    0.77762   1.00
H2       0.18360    0.78533    0.78995   1.00
C5       -0.11257   0.35084    0.83215   1.00
H2       -0.15274   0.29828    0.83642   1.00
H2       -0.06289   0.35187    0.83267   1.00
C5       -0.12522   0.36904    0.81070   1.00
H2       -0.13303   0.32815    0.79987   1.00
C5       0.41832    0.38842    0.96598   1.00
H2       0.40853    0.33579    0.96346   1.00
H2       0.36797    0.38537    0.96463   1.00
C5       0.44818    0.41259    0.98747   1.00
H2       0.40694    0.39233    0.99908   1.00
H2       0.47637    0.46930    0.98816   1.00
O_3      0.54031    0.61398    0.88453   1.00
C4       0.49952    0.47449    0.88297   1.00
C3c      0.46476    0.44633    0.90122   1.00
H1       0.41759    0.44571    0.90435   1.00
C3d      0.56039    0.47391    0.87906   1.00
C3       0.49052    0.41954    0.91579   1.00
O2       0.44966    0.38544    0.93210   1.00
C3       0.58684    0.44845    0.89370   1.00
H1       0.63492    0.45129    0.89034   1.00
C2       0.55273    0.42047    0.91233   1.00
C5       0.60622    0.65598    0.87649   1.00
H2       0.60665    0.69030    0.86430   1.00
H2       0.62745    0.62482    0.87011   1.00
C5       0.65173    0.69969    0.89370   1.00
H2       0.64980    0.66543    0.90613   1.00
H2       0.63043    0.73104    0.89982   1.00
C5       0.72528    0.74540    0.88640   1.00
H2       0.72752    0.77941    0.87389   1.00
H2       0.74740    0.71410    0.88093   1.00
H2       0.75743    0.77804    0.89907   1.00
C5       0.57656    0.45911    0.84571   1.00
C5       0.46500    0.43088    0.94856   1.00
H2       0.52266    0.44216    0.84175   1.00
H2       0.58095    0.41325    0.84922   1.00
H2       0.45455    0.47250    0.94432   1.00
H2       0.51969    0.45541    0.95328   1.00
H2       0.48336    0.39335    0.99173   1.00
H2       0.54350    0.45872    0.80338   1.00
H2       0.57801    0.40314    0.80877   1.00
C2       0.42787    0.56363    0.83911   1.00
C3       0.40391    0.49288    0.83869   1.00
O2       0.37153    0.45496    0.82167   1.00
C3       0.47294    0.60298    0.85485   1.00
H1       0.49081    0.65695    0.85590   1.00
C3a      0.42658    0.46363    0.85347   1.00
H1       0.41084    0.41014    0.85226   1.00
C3b      0.49709    0.57414    0.86914   1.00
C4       0.47406    0.50399    0.86851   1.00
O_3      0.59918    0.50560    0.86204   1.00
C5       0.30037    0.41795    0.82477   1.00
H2       0.28672    0.38255    0.83796   1.00
C5       0.26846    0.37659    0.80546   1.00
H2       0.27993    0.45297    0.82750   1.00
H2       0.27397    0.33042    0.80581   1.00
H2       0.29938    0.40796    0.79238   1.00
C5       0.19297    0.35632    0.80281   1.00
H2       0.16394    0.32978    0.81669   1.00
H2       0.17004    0.32162    0.78958   1.00
H2       0.18740    0.40192    0.79984   1.00
C5       0.62138    0.49571    0.82750   1.00
H2       0.67284    0.50211    0.83013   1.00
H2       0.62802    0.54785    0.82672   1.00
C5       0.59049    0.45718    0.80755   1.00
H2       0.62763    0.48137    0.79497   1.00
C5       0.64195    0.39955    0.29087   1.00
H2       0.66169    0.36676    0.28500   1.00
H2       0.64341    0.39663    0.30766   1.00
C5       0.68863    0.47378    0.28360   1.00
H2       0.73466    0.50045    0.29341   1.00
H2       0.66032    0.50221    0.28400   1.00
O_3      0.28998    0.26182    0.29430   1.00
C4       0.35789    0.19085    0.28353   1.00
C3c      0.42620    0.23308    0.28929   1.00
H1       0.43890    0.24450    0.30515   1.00
C3d      0.34255    0.17581    0.26280   1.00
C3       0.47887    0.26192    0.27478   1.00
O2       0.54508    0.29578    0.28170   1.00
C3       0.39471    0.20550    0.24829   1.00
H1       0.38019    0.19443    0.23253   1.00
C2       0.46397    0.24891    0.25384   1.00
C5       0.24142    0.25515    0.27969   1.00
H2       0.18979    0.23571    0.28642   1.00
H2       0.23723    0.21980    0.26726   1.00
C5       0.26507    0.32541    0.27081   1.00
H2       0.31745    0.34565    0.26460   1.00
H2       0.26846    0.36009    0.28332   1.00
C5       0.21620    0.32237    0.25420   1.00
H2       0.16369    0.30175    0.26027   1.00
H2       0.21460    0.28963    0.24138   1.00
H2       0.23350    0.37440    0.24821   1.00
C5       0.25418    0.06859    0.25670   1.00
C5       0.56801    0.36620    0.28352   1.00
H2       0.25542    0.05129    0.27240   1.00
H2       0.28659    0.05630    0.24680   1.00
H2       0.53612    0.37457    0.29478   1.00
H2       0.56513    0.38948    0.26885   1.00
H2       0.70764    0.47520    0.26786   1.00
H2       0.13688    -0.05575   0.27059   1.00
H2       0.17719    -0.06875   0.24853   1.00
C2       0.19467    0.10788    0.32669   1.00
C3       0.23041    0.07314    0.32232   1.00
O2       0.20344    0.00562    0.32772   1.00
C3       0.21636    0.17165    0.31727   1.00
H1       0.19121    0.20034    0.32070   1.00
C3a      0.28514    0.10158    0.30842   1.00
H1       0.30945    0.07254    0.30436   1.00
C3b      0.26939    0.19875    0.30297   1.00
C4       0.30418    0.16366    0.29841   1.00
O_3      0.27568    0.13878    0.25621   1.00
C5       0.23590    0.00031    0.34532   1.00
H2       0.29189    0.02286    0.34287   1.00
C5       0.20411    -0.07574   0.35009   1.00
H2       0.22779    0.02667    0.35840   1.00
H2       0.22764    -0.09761   0.33995   1.00
H2       0.14916    -0.10082   0.34589   1.00
C5       0.21232    -0.08967   0.37251   1.00
H2       0.26699    -0.05997   0.37688   1.00
H2       0.19378    -0.14485   0.37501   1.00
H2       0.18167    -0.07585   0.38273   1.00
C5       0.18105    0.03011    0.24899   1.00
H2       0.18150    0.03845    0.23233   1.00
H2       0.15246    0.05304    0.25605   1.00
C5       0.14595    -0.04651   0.25395   1.00
H2       0.09551    -0.07395   0.24631   1.00
C5       0.59679    0.37122    0.28458   1.00
H2       0.57506    0.37814    0.27028   1.00
H2       0.57059    0.38208    0.29705   1.00
C5       0.58201    0.29682    0.28597   1.00
H2       0.52927    0.26233    0.29156   1.00
H2       0.61892    0.29383    0.29647   1.00
O_3      0.90893    0.63931    0.31690   1.00
C4       0.83349    0.64249    0.28340   1.00
C3c      0.76849    0.58455    0.28527   1.00
H1       0.73650    0.58017    0.29802   1.00
C3d      0.87398    0.64765    0.26653   1.00
C3       0.74413    0.53115    0.27100   1.00
O2       0.67709    0.48017    0.27247   1.00
C3       0.85040    0.59399    0.25250   1.00
H1       0.88422    0.59914    0.24020   1.00
C2       0.78509    0.53469    0.25429   1.00
C5       0.97714    0.65982    0.31188   1.00
H2       1.01433    0.70230    0.32169   1.00
H2       0.98834    0.67677    0.29574   1.00
C5       0.98692    0.59875    0.31492   1.00
H2       0.94848    0.55569    0.30555   1.00
H2       0.97623    0.58268    0.33111   1.00
C5       1.05938    0.61599    0.30908   1.00
H2       1.09805    0.65927    0.31828   1.00
H2       1.06928    0.62976    0.29273   1.00
H2       1.06602    0.57121    0.31182   1.00
C5       0.94023    0.75618    0.25479   1.00
C5       0.67249    0.42559    0.28412   1.00
H2       0.91144    0.77548    0.26358   1.00
H2       0.91752    0.74149    0.23931   1.00
H2       0.69155    0.44326    0.29982   1.00
H2       0.70329    0.40401    0.27759   1.00
H2       0.58542    0.27702    0.27073   1.00
H2       1.00240    0.90185    0.26014   1.00
H2       0.98868    0.87646    0.23362   1.00
C2       0.91347    0.80294    0.32748   1.00
C3       0.87272    0.80375    0.31139   1.00
O2       0.87209    0.86280    0.30668   1.00
C3       0.92405    0.74660    0.32913   1.00
H1       0.95352    0.74359    0.34157   1.00
C3a      0.84527    0.74990    0.29719   1.00
H1       0.81746    0.75318    0.28432   1.00
C3b      0.89851    0.69422    0.31462   1.00
C4       0.85889    0.69562    0.29847   1.00
O_3      0.94027    0.70114    0.26480   1.00
C5       0.81240    0.85974    0.31431   1.00
H2       0.76564    0.81558    0.30779   1.00
C5       0.81500    0.92620    0.30818   1.00
H2       0.81011    0.85507    0.33116   1.00
H2       0.79877    0.92188    0.29205   1.00
H2       0.86937    0.96753    0.30878   1.00
C5       0.77059    0.94374    0.32183   1.00
H2       0.71768    0.89977    0.32232   1.00
H2       0.76922    0.98908    0.31590   1.00
H2       0.79152    0.95677    0.33759   1.00
C5       1.01405    0.81313    0.25290   1.00
H2       1.03976    0.79800    0.24130   1.00
H2       1.04012    0.81759    0.26762   1.00
C5       1.01956    0.88176    0.24735   1.00
H2       1.07350    0.92024    0.24403   1.00
C5       0.76349    0.39637    0.28602   1.00
H2       0.79341    0.42054    0.27208   1.00
H2       0.79877    0.42206    0.29891   1.00
C5       0.70188    0.40815    0.28711   1.00
H2       0.71762    0.45982    0.29319   1.00
H2       0.66158    0.36914    0.29707   1.00
O_3      0.72827    0.08547    0.31582   1.00
C4       0.80903    0.16654    0.28341   1.00
C3c      0.81324    0.23017    0.28578   1.00
H1       0.83860    0.26108    0.29893   1.00
C3d      0.77663    0.12750    0.26603   1.00
C3       0.78419    0.25448    0.27150   1.00
O2       0.79753    0.32052    0.27355   1.00
C3       0.74652    0.15097    0.25198   1.00
H1       0.72012    0.11818    0.23925   1.00
C2       0.74966    0.21486    0.25426   1.00
C5       0.68311    0.01739    0.31000   1.00
H2       0.68898    -0.01993   0.31957   1.00
H2       0.69127    0.00861    0.29384   1.00
C5       0.61090    0.00448    0.31249   1.00
H2       0.60560    0.04300    0.30337   1.00
H2       0.60311    0.01276    0.32871   1.00
C5       0.55833    -0.06798   0.30577   1.00
H2       0.56364    -0.10670   0.31472   1.00
H2       0.56454    -0.07554   0.28940   1.00
H2       0.50584    -0.07696   0.30813   1.00
C5       0.82393    0.06591    0.25411   1.00
C5       0.74504    0.32153    0.28488   1.00
H2       0.87076    0.09502    0.26342   1.00
H2       0.83289    0.09031    0.23886   1.00
H2       0.74266    0.30095    0.30043   1.00
H2       0.69366    0.29000    0.27778   1.00
H2       0.68008    0.40567    0.27171   1.00
H2       0.91116    0.00799    0.25958   1.00
H2       0.90167    0.02410    0.23310   1.00
C2       0.88957    0.08645    0.32743   1.00
C3       0.93204    0.12997    0.31192   1.00
O2       0.99342    0.13366    0.30761   1.00
C3       0.82157    0.07310    0.32855   1.00
H1       0.78829    0.04143    0.34055   1.00
C3a      0.90553    0.15740    0.29775   1.00
H1       0.93752    0.18744    0.28529   1.00
C3b      0.79474    0.09868    0.31405   1.00
C4       0.83671    0.14107    0.29847   1.00
O_3      0.76660    0.06236    0.26374   1.00
C5       1.04777    0.19347    0.31604   1.00
H2       1.04916    0.24008    0.30987   1.00
C5       1.11373    0.19435    0.31033   1.00
H2       1.04335    0.19360    0.33287   1.00
H2       1.12700    0.21265    0.29440   1.00
H2       1.10268    0.14057    0.31045   1.00
C5       1.17348    0.23874    0.32469   1.00
H2       1.18028    0.29078    0.32562   1.00
H2       1.22174    0.24275    0.31909   1.00
H2       1.16454    0.21605    0.34023   1.00
C5       0.81009    -0.00674   0.25159   1.00
H2       0.77084    -0.03221   0.23954   1.00
H2       0.78750    -0.03490   0.26597   1.00
C5       0.87534    -0.00882   0.24643   1.00
H2       0.86226    -0.06180   0.24263   1.00
C5       0.84694    0.64447    0.69673   1.00
H2       0.86352    0.60589    0.69705   1.00
H2       0.89449    0.69488    0.69647   1.00
C5       0.80446    0.63468    0.67734   1.00
H2       0.83832    0.65900    0.66402   1.00
H2       0.77146    0.65768    0.67948   1.00
O_3      0.75404    0.72845    0.78824   1.00
C4       0.80880    0.64170    0.78366   1.00
C3c      0.83385    0.65157    0.76373   1.00
H1       0.87567    0.70073    0.75926   1.00
C3d      0.75493    0.57697    0.78926   1.00
C3       0.80501    0.59890    0.74922   1.00
O2       0.83747    0.60975    0.73081   1.00
C3       0.72524    0.52480    0.77475   1.00
H1       0.68246    0.47676    0.77955   1.00
C2       0.74946    0.53414    0.75447   1.00
C5       0.69288    0.69819    0.79954   1.00
H2       0.69536    0.73012    0.81274   1.00
H2       0.68053    0.64696    0.80533   1.00
C5       0.63611    0.69021    0.78551   1.00
H2       0.63488    0.65991    0.77204   1.00
H2       0.64865    0.74171    0.77998   1.00
C5       0.56706    0.65531    0.79643   1.00
H2       0.56807    0.68505    0.80999   1.00
H2       0.55338    0.60297    0.80134   1.00
H2       0.52645    0.65128    0.78608   1.00
C5       0.76053    0.54725    0.82196   1.00
C5       0.80875    0.63529    0.71669   1.00
H2       0.81446    0.58857    0.82367   1.00
H2       0.75985    0.49978    0.81702   1.00
H2       0.81593    0.68524    0.72202   1.00
H2       0.75278    0.60017    0.71451   1.00
H2       0.77185    0.57944    0.67350   1.00
H2       0.81493    0.58330    0.86256   1.00
H2       0.78654    0.49488    0.85631   1.00
C2       0.88923    0.80196    0.82779   1.00
C3       0.91980    0.76139    0.82501   1.00
O2       0.96368    0.76089    0.83944   1.00
C3       0.83419    0.79042    0.81504   1.00
H1       0.81083    0.82176    0.81643   1.00
C3a      0.89397    0.70969    0.81012   1.00
H1       0.91540    0.67654    0.80897   1.00
C3b      0.80722    0.73755    0.80069   1.00
C4       0.83699    0.69658    0.79816   1.00
O_3      0.72504    0.56608    0.80822   1.00
C5       1.03190    0.80152    0.83302   1.00
H2       1.04117    0.78251    0.81842   1.00
C5       1.07703    0.79739    0.84960   1.00
H2       1.04512    0.85563    0.83098   1.00
H2       1.07713    0.74855    0.84778   1.00
H2       1.05222    0.79437    0.86445   1.00
C5       1.15051    0.85837    0.84928   1.00
H2       1.17257    0.86385    0.83387   1.00
H2       1.18316    0.85074    0.86038   1.00
H2       1.15201    0.90683    0.85364   1.00
C5       0.72519    0.53461    0.84245   1.00
H2       0.67549    0.48609    0.84158   1.00
H2       0.71342    0.57617    0.84524   1.00
C5       0.76942    0.53207    0.85978   1.00
H2       0.73943    0.51577    0.87407   1.00
C5       0.59344    0.43473    0.77253   1.00
H2       0.63095    0.41684    0.77338   1.00
H2       0.59137    0.45310    0.78799   1.00
C5       0.61830    0.49372    0.75702   1.00
H2       0.65682    0.54287    0.76398   1.00
H2       0.57445    0.49861    0.75154   1.00
O_3      0.24898    0.19074    0.77880   1.00
C4       0.35818    0.16590    0.78363   1.00
C3c      0.41683    0.23028    0.78575   1.00
H1       0.42195    0.26161    0.79874   1.00
C3d      0.35296    0.12547    0.76674   1.00
C3       0.46911    0.25563    0.77110   1.00
O2       0.52846    0.31521    0.77541   1.00
C3       0.40432    0.15111    0.75193   1.00
H1       0.39696    0.11926    0.73887   1.00
C2       0.46363    0.21640    0.75371   1.00
C5       0.20084    0.14718    0.76435   1.00
H2       0.14817    0.11908    0.77068   1.00
H2       0.21413    0.10901    0.75853   1.00
C5       0.20164    0.19118    0.74683   1.00
H2       0.25468    0.22072    0.74087   1.00
H2       0.18768    0.22866    0.75278   1.00
C5       0.15225    0.14740    0.73003   1.00
H2       0.09926    0.11740    0.73591   1.00
H2       0.16754    0.11158    0.72359   1.00
H2       0.15243    0.18055    0.71756   1.00
C5       0.29813    0.01131    0.77331   1.00
C5       0.52524    0.37139    0.76735   1.00
H2       0.30200    0.01942    0.79001   1.00
H2       0.34283    0.00725    0.76807   1.00
H2       0.48232    0.37484    0.77444   1.00
H2       0.51677    0.36739    0.75057   1.00
H2       0.64391    0.48512    0.74376   1.00
H2       0.21158    -0.10361   0.79883   1.00
H2       0.26912    -0.11856   0.78328   1.00
C2       0.19406    0.08921    0.82646   1.00
C3       0.25008    0.07925    0.82976   1.00
O2       0.24541    0.03137    0.84359   1.00
C3       0.19544    0.12767    0.80936   1.00
H1       0.15418    0.13770    0.80670   1.00
C3a      0.30469    0.10603    0.81581   1.00
H1       0.34532    0.09466    0.81792   1.00
C3b      0.24878    0.15235    0.79518   1.00
C4       0.30392    0.14152    0.79831   1.00
O_3      0.29406    0.06401    0.76316   1.00
C5       0.27928    0.06356    0.86172   1.00
H2       0.33438    0.10056    0.85894   1.00
C5       0.27281    0.00745    0.87606   1.00
H2       0.25550    0.09124    0.86887   1.00
H2       0.31141    -0.00691   0.87162   1.00
H2       0.22187    -0.03835   0.87338   1.00
C5       0.28125    0.02868    0.89857   1.00
H2       0.32993    0.07738    0.90067   1.00
H2       0.28197    -0.01105   0.90835   1.00
H2       0.23782    0.03486    0.90396   1.00
C5       0.23304    -0.05525   0.76865   1.00
H2       0.23503    -0.06923   0.75257   1.00
H2       0.18917    -0.04615   0.76992   1.00
C5       0.22299    -0.11302   0.78308   1.00
H2       0.17915    -0.16217   0.77793   1.00
C5       0.57568    0.18570    0.77813   1.00
H2       0.59894    0.24200    0.77757   1.00
H2       0.56138    0.17112    0.79423   1.00
C5       0.51156    0.15218    0.76445   1.00
H2       0.46680    0.14898    0.77248   1.00
H2       0.49965    0.09991    0.76005   1.00
O_3      0.79420    0.05300    0.78186   1.00
C4       0.83417    0.19227    0.78361   1.00
C3c      0.77413    0.19457    0.78700   1.00
H1       0.74625    0.17472    0.80100   1.00
C3d      0.87026    0.21929    0.76539   1.00
C3       0.74861    0.22143    0.77237   1.00
O2       0.69441    0.22960    0.77776   1.00
C3       0.84430    0.24488    0.75064   1.00
H1       0.87244    0.26283    0.73661   1.00
C2       0.78325    0.24692    0.75372   1.00
C5       0.82952    0.03861    0.76680   1.00
H2       0.85509    0.01138    0.77306   1.00
H2       0.86904    0.08634    0.75932   1.00
C5       0.77771    -0.00682   0.75103   1.00
H2       0.75080    0.01957    0.74518   1.00
H2       0.73888    -0.05457   0.75863   1.00
C5       0.81234    -0.02303   0.73364   1.00
H2       0.83971    -0.04896   0.73938   1.00
H2       0.84942    0.02442    0.72559   1.00
H2       0.77349    -0.05749   0.72249   1.00
C5       0.98576    0.27000    0.76869   1.00
C5       0.63254    0.17147    0.77192   1.00
H2       0.98328    0.27157    0.78551   1.00
H2       0.99331    0.31912    0.76245   1.00
H2       0.62643    0.12534    0.77993   1.00
H2       0.63016    0.16121    0.75526   1.00
H2       0.51904    0.18305    0.75046   1.00
H2       1.10478    0.29383    0.79140   1.00
H2       1.12175    0.36345    0.77426   1.00
C2       0.91018    0.10431    0.82648   1.00
C3       0.92804    0.17340    0.82829   1.00
O2       0.98225    0.21727    0.84032   1.00
C3       0.86437    0.06476    0.81091   1.00
H1       0.84831    0.01129    0.80944   1.00
C3a      0.90154    0.20160    0.81438   1.00
H1       0.91875    0.25550    0.81526   1.00
C3b      0.83983    0.09349    0.79670   1.00
C4       0.85846    0.16244    0.79833   1.00
O_3      0.92674    0.21358    0.76067   1.00
C5       0.95845    0.22838    0.85890   1.00
H2       0.92502    0.25095    0.85646   1.00
C5       1.02124    0.27817    0.87116   1.00
H2       0.92917    0.17981    0.86751   1.00
H2       1.03916    0.33073    0.86546   1.00
H2       1.06252    0.26649    0.86776   1.00
C5       1.00749    0.27410    0.89418   1.00
H2       0.96271    0.28051    0.89715   1.00
H2       1.05242    0.31480    0.90238   1.00
H2       0.99790    0.22437    0.90061   1.00
C5       1.04651    0.26219    0.76281   1.00
H2       1.05600    0.27241    0.74626   1.00
H2       1.03244    0.20803    0.76528   1.00
C5       1.11066    0.30979    0.77517   1.00
H2       1.15543    0.30794    0.76905   1.00
C5       -0.04273   0.35193    0.46145   1.00
H2       -0.05463   0.38723    0.46984   1.00
H2       0.01310    0.37313    0.46311   1.00
C5       -0.08223   0.28000    0.47103   1.00
H2       -0.05531   0.27660    0.48472   1.00
H2       -0.08743   0.24088    0.45983   1.00
O_3      -0.00537   0.38929    0.35666   1.00
C4       -0.02456   0.47581    0.38313   1.00
C3c      -0.01406   0.45872    0.40276   1.00
H1       0.03570    0.46723    0.40702   1.00
C3d      -0.08953   0.46522    0.37798   1.00
C3       -0.06741   0.42967    0.41704   1.00
O2       -0.05133   0.42206    0.43664   1.00
C3       -0.14308   0.43510    0.39204   1.00
H1       -0.19261   0.42573    0.38717   1.00
C2       -0.13354   0.41682    0.41188   1.00
C5       -0.05245   0.36545    0.34046   1.00
H2       -0.02669   0.37663    0.32540   1.00
H2       -0.08563   0.38888    0.34085   1.00
C5       -0.09665   0.28864    0.34272   1.00
H2       -0.12088   0.27738    0.35800   1.00
H2       -0.06308   0.26574    0.34212   1.00
C5       -0.15109   0.25872    0.32604   1.00
H2       -0.12726   0.27018    0.31074   1.00
H2       -0.18610   0.27978    0.32707   1.00
H2       -0.18192   0.20237    0.32768   1.00
C5       -0.08723   0.54499    0.35636   1.00
C5       -0.06044   0.35604    0.43928   1.00
H2       -0.03187   0.58035    0.35889   1.00
H2       -0.11669   0.55821    0.36720   1.00
H2       -0.02562   0.34861    0.42896   1.00
H2       -0.11373   0.31485    0.43585   1.00
H2       -0.13406   0.26810    0.47620   1.00
H2       -0.01583   0.65468    0.32768   1.00
H2       -0.08503   0.65847    0.34044   1.00
C2       0.13349    0.55713    0.33830   1.00
C3       0.12710    0.60123    0.35213   1.00
O2       0.15923    0.67040    0.34839   1.00
C3       0.08891    0.48606    0.34035   1.00
H1       0.09364    0.45085    0.33034   1.00
C3a      0.07586    0.57390    0.36715   1.00
H1       0.06911    0.60854    0.37687   1.00
C3b      0.03662    0.45919    0.35488   1.00
C4       0.02965    0.50316    0.36841   1.00
O_3      -0.10386   0.47635    0.35841   1.00
C5       0.21859    0.70500    0.36037   1.00
H2       0.20625    0.69638    0.37688   1.00
C5       0.25045    0.78108    0.35562   1.00
H2       0.25570    0.68789    0.35664   1.00
H2       0.22217    0.80143    0.36423   1.00
H2       0.24151    0.78577    0.33924   1.00
C5       0.32724    0.82212    0.36058   1.00
H2       0.33570    0.81256    0.37656   1.00
H2       0.34725    0.87777    0.35856   1.00
H2       0.35745    0.80816    0.35022   1.00
C5       -0.10499   0.55447    0.33478   1.00
H2       -0.16153   0.52824    0.33337   1.00
H2       -0.08711   0.52812    0.32428   1.00
C5       -0.07239   0.63030    0.32902   1.00
H2       -0.09207   0.63536    0.31406   1.00
C5       0.38535    1.05030    0.45884   1.00
H2       0.43006    1.05941    0.46812   1.00
H2       0.34791    0.99501    0.46029   1.00
C5       0.35504    1.09322    0.46731   1.00
H2       0.32150    1.06747    0.48058   1.00
H2       0.32479    1.10086    0.45535   1.00
O_3      0.40216    1.01182    0.35462   1.00
C4       0.50034    1.02451    0.38315   1.00
C3c      0.46945    1.01552    0.40224   1.00
H1       0.42557    0.96694    0.40608   1.00
C3d      0.55807    1.08791    0.37855   1.00
C3       0.49382    1.06892    0.41650   1.00
O2       0.46632    1.05391    0.43570   1.00
C3       0.58166    1.14159    0.39258   1.00
H1       0.62460    1.19001    0.38810   1.00
C2       0.55057    1.13359    0.41187   1.00
C5       0.43071    1.05884    0.33850   1.00
H2       0.41771    1.03326    0.32340   1.00
H2       0.48739    1.08929    0.33979   1.00
C5       0.40190    1.10663    0.33962   1.00
H2       0.41321    1.13076    0.35491   1.00
H2       0.34536    1.07578    0.33812   1.00
C5       0.43228    1.16118    0.32298   1.00
H2       0.42158    1.13743    0.30767   1.00
H2       0.48845    1.19354    0.32488   1.00
H2       0.40950    1.19470    0.32376   1.00
C5       0.63649    1.08036    0.35868   1.00
C5       0.41165    1.06712    0.43701   1.00
H2       0.61301    1.02458    0.36131   1.00
H2       0.67759    1.10789    0.37014   1.00
H2       0.37052    1.03404    0.42613   1.00
H2       0.42755    1.12129    0.43334   1.00
H2       0.39606    1.14402    0.47284   1.00
H2       0.67380    1.00414    0.33158   1.00
H2       0.74641    1.07064    0.34522   1.00
C2       0.42401    0.86661    0.33828   1.00
C3       0.47051    0.86981    0.35310   1.00
O2       0.50467    0.83417    0.35049   1.00
C3       0.40116    0.91438    0.33931   1.00
H1       0.36423    0.91219    0.32850   1.00
C3a      0.49424    0.92107    0.36812   1.00
H1       0.53275    0.92525    0.37865   1.00
C3b      0.42650    0.96662    0.35386   1.00
C4       0.47352    0.97039    0.36840   1.00
O_3      0.58716    1.10101    0.35944   1.00
C5       0.47460    0.77458    0.36248   1.00
H2       0.47597    0.78705    0.37892   1.00
C5       0.51588    0.73874    0.35901   1.00
H2       0.42056    0.73992    0.35794   1.00
H2       0.56304    0.76466    0.36839   1.00
H2       0.53264    0.74707    0.34287   1.00
C5       0.47534    0.66190    0.36393   1.00
H2       0.45446    0.65437    0.37957   1.00
H2       0.50866    0.63887    0.36288   1.00
H2       0.43267    0.63370    0.35293   1.00
C5       0.66790    1.09687    0.33757   1.00
H2       0.70119    1.15319    0.33627   1.00
H2       0.62604    1.08139    0.32629   1.00
C5       0.70837    1.06034    0.33306   1.00
H2       0.73630    1.07901    0.31849   1.00
C5       0.66439    0.61436    0.45893   1.00
H2       0.62881    0.56956    0.46818   1.00
H2       0.64644    0.65171    0.46039   1.00
C5       0.73759    0.64475    0.46744   1.00
H2       0.74524    0.67819    0.48073   1.00
H2       0.77553    0.67512    0.45551   1.00
O_3      0.60972    0.59810    0.35469   1.00
C4       0.52418    0.49966    0.38315   1.00
C3c      0.54591    0.53044    0.40225   1.00
H1       0.54109    0.57424    0.40611   1.00
C3d      0.53002    0.44204    0.37853   1.00
C3       0.57495    0.50607    0.41652   1.00
O2       0.58728    0.53345    0.43574   1.00
C3       0.56010    0.41845    0.39256   1.00
H1       0.56572    0.37560    0.38807   1.00
C2       0.58303    0.44943    0.41187   1.00
C5       0.62838    0.56973    0.33856   1.00
H2       0.61584    0.58278    0.32346   1.00
H2       0.60222    0.51304    0.33982   1.00
C5       0.70499    0.59867    0.33972   1.00
H2       0.71775    0.58730    0.35501   1.00
H2       0.73059    0.65521    0.33825   1.00
C5       0.72935    0.56848    0.32308   1.00
H2       0.71635    0.57924    0.30776   1.00
H2       0.70563    0.51231    0.32495   1.00
H2       0.78565    0.59135    0.32388   1.00
C5       0.44425    0.36364    0.35860   1.00
C5       0.65510    0.58820    0.43709   1.00
H2       0.41184    0.38700    0.36123   1.00
H2       0.43069    0.32248    0.37004   1.00
H2       0.66313    0.62938    0.42623   1.00
H2       0.69348    0.57243    0.43342   1.00
H2       0.74745    0.60376    0.47295   1.00
H2       0.33084    0.32629    0.33145   1.00
H2       0.32480    0.25365    0.34506   1.00
C2       0.44262    0.57600    0.33828   1.00
C3       0.39929    0.52936    0.35307   1.00
O2       0.32950    0.49510    0.35042   1.00
C3       0.51326    0.59898    0.33934   1.00
H1       0.54802    0.63601    0.32856   1.00
C3a      0.42681    0.50563    0.36809   1.00
H1       0.39246    0.46701    0.37859   1.00
C3b      0.54016    0.57364    0.35389   1.00
C4       0.49688    0.52648    0.36840   1.00
O_3      0.51418    0.41306    0.35940   1.00
C5       0.29981    0.52499    0.36241   1.00
H2       0.31082    0.52355    0.37886   1.00
C5       0.22272    0.48361    0.35890   1.00
H2       0.31911    0.57905    0.35790   1.00
H2       0.20150    0.43640    0.36825   1.00
H2       0.21441    0.46695    0.34275   1.00
C5       0.18626    0.52399    0.36383   1.00
H2       0.19947    0.54478    0.37948   1.00
H2       0.12992    0.49059    0.36274   1.00
H2       0.20071    0.56672    0.35285   1.00
C5       0.42953    0.33236    0.33747   1.00
H2       0.45267    0.29917    0.33617   1.00
H2       0.45591    0.37430    0.32622   1.00
C5       0.35256    0.29179    0.33292   1.00
H2       0.34344    0.26396    0.31833   1.00
C5       0.31169    0.37482    0.29523   1.00
H2       0.36075    0.42139    0.29157   1.00
H2       0.32031    0.33124    0.29263   1.00
C5       0.29329    0.37721    0.31770   1.00
H2       0.32135    0.36042    0.32788   1.00
H2       0.23751    0.34341    0.32006   1.00
O_3      0.05839    0.24874    0.22128   1.00
C4       0.19210    0.35841    0.21629   1.00
C3c      0.22906    0.35608    0.23308   1.00
H1       0.23663    0.31292    0.23505   1.00
C3d      0.18366    0.41556    0.21386   1.00
C3       0.25589    0.40851    0.24769   1.00
O2       0.29840    0.40678    0.26230   1.00
C3       0.20919    0.46722    0.22858   1.00
H1       0.19936    0.50887    0.22644   1.00
C2       0.24604    0.46531    0.24576   1.00
C5       0.00840    0.26548    0.21562   1.00
H2       -0.02780   0.22945    0.20413   1.00
H2       0.03233    0.31812    0.20924   1.00
C5       -0.03158   0.26170    0.23455   1.00
H2       0.00484    0.29627    0.24624   1.00
H2       -0.05576   0.20878    0.24068   1.00
C5       -0.08569   0.28162    0.22988   1.00
H2       -0.12196   0.24759    0.21812   1.00
H2       -0.06142   0.33525    0.22443   1.00
H2       -0.11538   0.27709    0.24380   1.00
C5       0.18339    0.44593    0.18088   1.00
C5       0.26031    0.37311    0.27980   1.00
H2       0.20438    0.41372    0.17537   1.00
H2       0.22658    0.49857    0.18367   1.00
H2       0.22155    0.31931    0.27608   1.00
H2       0.23247    0.39803    0.28623   1.00
H2       0.30826    0.43030    0.32244   1.00
H2       0.17269    0.41520    0.13807   1.00
H2       0.22180    0.50613    0.14327   1.00
C2       0.10274    0.19706    0.17261   1.00
C3       0.17111    0.24966    0.17037   1.00
O2       0.20415    0.25952    0.15204   1.00
C3       0.06633    0.19748    0.19001   1.00
H1       0.01450    0.15699    0.19243   1.00
C3a      0.20067    0.30182    0.18508   1.00
H1       0.25174    0.34378    0.18255   1.00
C3b      0.09516    0.25057    0.20426   1.00
C4       0.16277    0.30339    0.20186   1.00
O_3      0.14337    0.41791    0.19846   1.00
C5       0.24841    0.23257    0.15275   1.00
H2       0.28763    0.25748    0.16490   1.00
C5       0.28377    0.24649    0.13209   1.00
H2       0.21950    0.17655    0.15560   1.00
H2       0.32597    0.30047    0.13177   1.00
H2       0.24617    0.24192    0.12041   1.00
C5       0.31099    0.19775    0.12731   1.00
H2       0.34417    0.19899    0.13991   1.00
H2       0.34125    0.21303    0.11301   1.00
H2       0.26839    0.14430    0.12503   1.00
C5       0.13738    0.44868    0.16453   1.00
H2       0.12599    0.48976    0.16849   1.00
H2       0.08799    0.39968    0.16484   1.00
C5       0.16976    0.46054    0.14330   1.00
H2       0.13822    0.46935    0.13213   1.00
C5       0.38574    0.57937    0.22042   1.00
H2       0.39568    0.56512    0.23563   1.00
H2       0.40066    0.55230    0.20931   1.00
C5       0.30896    0.55556    0.21836   1.00
H2       0.27924    0.50045    0.21437   1.00
H2       0.30121    0.58563    0.20637   1.00
O_3      0.62990    0.89132    0.18020   1.00
C4       0.64253    0.83361    0.21661   1.00
C3c      0.58953    0.76541    0.21641   1.00
H1       0.58908    0.73092    0.20499   1.00
C3d      0.64269    0.87747    0.23179   1.00
C3       0.53603    0.74089    0.23064   1.00
O2       0.49064    0.67185    0.23105   1.00
C3       0.58881    0.85355    0.24575   1.00
H1       0.58985    0.88968    0.25666   1.00
C2       0.53442    0.78492    0.24562   1.00
C5       0.64289    0.95869    0.18275   1.00
H2       0.68317    0.99518    0.17223   1.00
H2       0.65923    0.97679    0.19860   1.00
C5       0.57710    0.95873    0.17827   1.00
H2       0.53636    0.92086    0.18840   1.00
H2       0.56161    0.94120    0.16235   1.00
C5       0.58607    1.02988    0.18140   1.00
H2       0.62701    1.06805    0.17143   1.00
H2       0.59922    1.04644    0.19745   1.00
H2       0.53791    1.02924    0.17762   1.00
C5       0.74893    0.95680    0.24262   1.00
C5       0.43362    0.65649    0.21873   1.00
H2       0.77308    0.92971    0.23541   1.00
H2       0.73613    0.93925    0.25866   1.00
H2       0.45004    0.67098    0.20266   1.00
H2       0.40683    0.68437    0.22357   1.00
H2       0.28745    0.56138    0.23300   1.00
H2       0.89512    1.03132    0.23729   1.00
H2       0.86976    1.02447    0.26373   1.00
C2       0.80245    0.91316    0.17236   1.00
C3       0.80833    0.88118    0.19001   1.00
O2       0.87080    0.88990    0.19575   1.00
C3       0.74155    0.91503    0.16931   1.00
H1       0.73474    0.93756    0.15570   1.00
C3a      0.75473    0.85371    0.20430   1.00
H1       0.76162    0.83289    0.21828   1.00
C3b      0.68927    0.88962    0.18385   1.00
C4       0.69563    0.85879    0.20154   1.00
O_3      0.69082    0.94623    0.23172   1.00
C5       0.87521    0.83177    0.19057   1.00
H2       0.83439    0.78510    0.19819   1.00
C5       0.94510    0.84492    0.19770   1.00
H2       0.87072    0.82324    0.17386   1.00
H2       0.94244    0.83493    0.21431   1.00
H2       0.98190    0.90029    0.19560   1.00
C5       0.96941    0.80150    0.18628   1.00
H2       0.92964    0.74677    0.18719   1.00
H2       1.01747    0.80818    0.19301   1.00
H2       0.98068    0.81711    0.17001   1.00
C5       0.79976    1.03302    0.24246   1.00
H2       0.78039    1.05878    0.25266   1.00
H2       0.80130    1.05260    0.22685   1.00
C5       0.87158    1.04895    0.24894   1.00
H2       0.90539    1.10490    0.25069   1.00
C5       0.39627    0.76333    0.21396   1.00
H2       0.42047    0.79327    0.22790   1.00
H2       0.42194    0.79858    0.20106   1.00
C5       0.40801    0.70169    0.21288   1.00
H2       0.45965    0.71740    0.20679   1.00
H2       0.36896    0.66138    0.20292   1.00
O_3      0.08539    0.72824    0.18420   1.00
C4       0.16655    0.80903    0.21659   1.00
C3c      0.23015    0.81320    0.21421   1.00
H1       0.26104    0.83852    0.20106   1.00
C3d      0.12752    0.77668    0.23398   1.00
C3       0.25446    0.78415    0.22849   1.00
O2       0.32048    0.79745    0.22644   1.00
C3       0.15099    0.74656    0.24803   1.00
H1       0.11821    0.72020    0.26076   1.00
C2       0.21486    0.74966    0.24574   1.00
C5       0.01731    0.68311    0.19003   1.00
H2       -0.02001   0.68900    0.18046   1.00
H2       0.00857    0.69131    0.20619   1.00
C5       0.00436    0.61089    0.18754   1.00
H2       0.04287    0.60558    0.19666   1.00
H2       0.01260    0.60307    0.17133   1.00
C5       -0.06810   0.55836    0.19428   1.00
H2       -0.10682   0.56368    0.18533   1.00
H2       -0.07563   0.56461    0.21065   1.00
H2       -0.07712   0.50586    0.19193   1.00
C5       0.06601    0.82405    0.24590   1.00
C5       0.32144    0.74492    0.21511   1.00
H2       0.09512    0.87086    0.23658   1.00
H2       0.09043    0.83302    0.26115   1.00
H2       0.30084    0.74253    0.19957   1.00
H2       0.28990    0.69355    0.22221   1.00
H2       0.40554    0.67991    0.22828   1.00
H2       0.00815    0.91134    0.24043   1.00
H2       0.02429    0.90187    0.26690   1.00
C2       0.08645    0.88957    0.17258   1.00
C3       0.13001    0.93205    0.18807   1.00
O2       0.13374    0.99346    0.19237   1.00
C3       0.07306    0.82155    0.17146   1.00
H1       0.04136    0.78826    0.15946   1.00
C3a      0.15744    0.90554    0.20224   1.00
H1       0.18751    0.93755    0.21469   1.00
C3b      0.09864    0.79472    0.18595   1.00
C4       0.14107    0.83670    0.20153   1.00
O_3      0.06240    0.76669    0.23627   1.00
C5       0.19356    1.04777    0.18394   1.00
H2       0.24016    1.04915    0.19010   1.00
C5       0.19449    1.11376    0.18964   1.00
H2       0.19365    1.04332    0.16710   1.00
H2       0.21282    1.12706    0.20556   1.00
H2       0.14072    1.10274    0.18952   1.00
C5       0.23887    1.17348    0.17526   1.00
H2       0.29090    1.18025    0.17433   1.00
H2       0.24292    1.22176    0.18086   1.00
H2       0.21616    1.16452    0.15973   1.00
C5       -0.00663   0.81026    0.24843   1.00
H2       -0.03209   0.77103    0.26048   1.00
H2       -0.03482   0.78765    0.23405   1.00
C5       -0.00865   0.87554    0.25358   1.00
H2       -0.06163   0.86249    0.25739   1.00
C5       1.02564    0.59532    0.53247   1.00
H2       1.06646    0.64926    0.53436   1.00
H2       0.97674    0.59552    0.53328   1.00
C5       1.03325    0.56880    0.51156   1.00
H2       1.01052    0.58514    0.49936   1.00
H2       1.00740    0.51211    0.51172   1.00
O_3      0.93204    0.38434    0.61727   1.00
C4       1.02499    0.52554    0.61702   1.00
C3c      1.01667    0.54932    0.59817   1.00
H1       0.96874    0.54647    0.59456   1.00
C3d      1.08818    0.53061    0.62154   1.00
C3       1.06928    0.57611    0.58362   1.00
O2       1.06040    0.60593    0.56658   1.00
C3       1.14021    0.55605    0.60694   1.00
H1       1.18692    0.55671    0.61081   1.00
C2       1.13239    0.57963    0.58771   1.00
C5       0.95916    0.34660    0.62638   1.00
H2       0.92625    0.31333    0.63890   1.00
H2       1.01109    0.38105    0.63266   1.00
C5       0.96392    0.30166    0.61011   1.00
H2       0.99522    0.33474    0.59734   1.00
H2       0.91172    0.26707    0.60408   1.00
C5       0.99533    0.26047    0.61859   1.00
H2       0.96458    0.22768    0.63144   1.00
H2       1.04833    0.29496    0.62396   1.00
H2       0.99700    0.22683    0.60659   1.00
C5       1.11876    0.55233    0.65485   1.00
C5       1.03241    0.55744    0.55076   1.00
H2       1.07962    0.56703    0.65808   1.00
H2       1.16769    0.59922    0.65093   1.00
H2       0.98133    0.51466    0.55530   1.00
H2       1.06504    0.53487    0.54684   1.00
H2       1.08813    0.59010    0.50747   1.00
H2       1.08460    0.55762    0.69677   1.00
H2       1.17397    0.61608    0.69118   1.00
C2       0.86446    0.43654    0.66097   1.00
C3       0.90826    0.50789    0.66044   1.00
O2       0.91141    0.54766    0.67672   1.00
C3       0.87298    0.39631    0.64611   1.00
H1       0.83917    0.34174    0.64577   1.00
C3a      0.96006    0.53697    0.64562   1.00
H1       0.99560    0.59121    0.64614   1.00
C3b      0.92591    0.42514    0.63180   1.00
C4       0.97006    0.49596    0.63149   1.00
O_3      1.09725    0.50324    0.63924   1.00
C5       0.87399    0.58075    0.67254   1.00
H2       0.89435    0.61415    0.65888   1.00
C5       0.88093    0.62448    0.69108   1.00
H2       0.81910    0.54299    0.66995   1.00
H2       0.93129    0.67226    0.69032   1.00
H2       0.88227    0.59630    0.70476   1.00
C5       0.82280    0.64101    0.69275   1.00
H2       0.81875    0.66421    0.67834   1.00
H2       0.83262    0.67745    0.70538   1.00
H2       0.77291    0.59424    0.69611   1.00
C5       1.12927    0.52049    0.67385   1.00
H2       1.17609    0.51672    0.67180   1.00
H2       1.08566    0.46741    0.67521   1.00
C5       1.13451    0.56147    0.69307   1.00
H2       1.14921    0.54099    0.70624   1.00
C5       0.58260    -0.03027   0.53416   1.00
H2       0.59212    -0.07326   0.53672   1.00
H2       0.63304    0.01690    0.53555   1.00
C5       0.55308    -0.03581   0.51262   1.00
H2       0.59449    -0.01498   0.50107   1.00
H2       0.52511    -0.00708   0.51186   1.00
O_3      0.46030    0.07412    0.61533   1.00
C4       0.50048    -0.02502   0.61703   1.00
C3c      0.53543    -0.01857   0.59883   1.00
H1       0.58276    0.02786    0.59574   1.00
C3d      0.43940    -0.08633   0.62089   1.00
C3       0.50968    -0.07111   0.58426   1.00
O2       0.55069    -0.06454   0.56801   1.00
C3       0.41296    -0.13822   0.60625   1.00
H1       0.36473    -0.18334   0.60957   1.00
C2       0.44727    -0.13224   0.58766   1.00
C5       0.39432    0.05047    0.62328   1.00
H2       0.39390    0.08445    0.63545   1.00
H2       0.37280    -0.00194   0.62967   1.00
C5       0.34915    0.04891    0.60601   1.00
H2       0.35109    0.01650    0.59360   1.00
H2       0.37075    0.10159    0.59987   1.00
C5       0.27555    0.02136    0.61320   1.00
H2       0.27329    0.05321    0.62568   1.00
H2       0.25314    -0.03209   0.61868   1.00
H2       0.24365    0.02201    0.60048   1.00
C5       0.42265    -0.11731   0.65424   1.00
C5       0.53577    -0.03427   0.55151   1.00
H2       0.47655    -0.08053   0.65825   1.00
H2       0.41807    -0.16766   0.65076   1.00
H2       0.54640    0.01787    0.55572   1.00
H2       0.48113    -0.06424   0.54672   1.00
H2       0.51778    -0.09019   0.50834   1.00
H2       0.45521    -0.08474   0.69660   1.00
H2       0.42042    -0.17487   0.69122   1.00
C2       0.57214    0.13580    0.66088   1.00
C3       0.59580    0.08876    0.66138   1.00
O2       0.62783    0.08304    0.67845   1.00
C3       0.52736    0.13028    0.64508   1.00
H1       0.50973    0.16656    0.64397   1.00
C3a      0.57313    0.03684    0.64660   1.00
H1       0.58863    -0.00109   0.64786   1.00
C3b      0.50322    0.07729    0.63079   1.00
C4       0.52595    0.02994    0.63149   1.00
O_3      0.40043    -0.09326   0.63785   1.00
C5       0.69903    0.11693    0.67545   1.00
H2       0.71272    0.09506    0.66229   1.00
C5       0.73055    0.10729    0.69481   1.00
H2       0.71973    0.17242    0.67270   1.00
H2       0.72480    0.05551    0.69449   1.00
H2       0.69952    0.10788    0.70784   1.00
C5       0.80608    0.16227    0.69754   1.00
H2       0.83525    0.16463    0.68371   1.00
H2       0.82871    0.15034    0.71081   1.00
H2       0.81185    0.21353    0.70048   1.00
C5       0.37765    -0.12533   0.67238   1.00
H2       0.32613    -0.17025   0.66970   1.00
H2       0.37124    -0.07970   0.67311   1.00
C5       0.40816    -0.13315   0.69239   1.00
H2       0.37086    -0.14596   0.70492   1.00
C5       0.38771    0.41782    0.53410   1.00
H2       0.33515    0.40818    0.53664   1.00
H2       0.38454    0.36742    0.53547   1.00
C5       0.41178    0.44749    0.51258   1.00
H2       0.39135    0.40616    0.50100   1.00
H2       0.46848    0.47556    0.51185   1.00
O_3      0.61389    0.53998    0.61540   1.00
C4       0.47449    0.49952    0.61703   1.00
C3c      0.44614    0.46466    0.59881   1.00
H1       0.44538    0.41740    0.59570   1.00
C3d      0.47410    0.56050    0.62092   1.00
C3       0.41935    0.49041    0.58424   1.00
O2       0.38507    0.44947    0.56796   1.00
C3       0.44865    0.58695    0.60627   1.00
H1       0.45163    0.63511    0.60961   1.00
C2       0.42047    0.55273    0.58767   1.00
C5       0.65607    0.60593    0.62338   1.00
H2       0.69043    0.60635    0.63556   1.00
H2       0.62505    0.62731    0.62977   1.00
C5       0.69972    0.65125    0.60614   1.00
H2       0.66541    0.64932    0.59373   1.00
H2       0.73093    0.62979    0.60001   1.00
C5       0.74562    0.72483    0.61338   1.00
H2       0.77968    0.72708    0.62588   1.00
H2       0.71446    0.74711    0.61885   1.00
H2       0.77821    0.75684    0.60068   1.00
C5       0.45961    0.57699    0.65426   1.00
C5       0.43037    0.46458    0.55148   1.00
H2       0.44257    0.52309    0.65825   1.00
H2       0.41380    0.58148    0.65077   1.00
H2       0.47194    0.45403    0.55570   1.00
H2       0.45498    0.51924    0.54672   1.00
H2       0.39263    0.48274    0.50831   1.00
H2       0.45944    0.54421    0.69661   1.00
H2       0.40399    0.57887    0.69122   1.00
C2       0.56364    0.42786    0.66089   1.00
C3       0.49292    0.40407    0.66135   1.00
O2       0.45509    0.37188    0.67840   1.00
C3       0.60294    0.47278    0.64511   1.00
H1       0.65688    0.49051    0.64403   1.00
C3a      0.46367    0.42674    0.64657   1.00
H1       0.41021    0.41113    0.64781   1.00
C3b      0.57410    0.49692    0.63082   1.00
C4       0.50399    0.47406    0.63149   1.00
O_3      0.50598    0.59939    0.63790   1.00
C5       0.41792    0.30069    0.67535   1.00
H2       0.38243    0.28702    0.66218   1.00
C5       0.37666    0.26900    0.69469   1.00
H2       0.45281    0.28011    0.67261   1.00
H2       0.33057    0.27464    0.69435   1.00
H2       0.40817    0.29998    0.70774   1.00
C5       0.35624    0.19349    0.69738   1.00
H2       0.32955    0.16438    0.68353   1.00
H2       0.32162    0.17072    0.71063   1.00
H2       0.40178    0.18781    0.70033   1.00
C5       0.49642    0.62191    0.67244   1.00
H2       0.50292    0.67340    0.66978   1.00
H2       0.54850    0.62843    0.67319   1.00
C5       0.45800    0.59123    0.69242   1.00
H2       0.48235    0.62845    0.70497   1.00
C5       0.29012    -0.31450   0.12580   1.00
H2       0.25175    -0.31604   0.11500   1.00
H2       0.27208    -0.31059   0.14115   1.00
C5       0.29329    -0.38097   0.12391   1.00
H2       0.25125    -0.42307   0.13265   1.00
H2       0.34303    -0.37265   0.12973   1.00
O_3      0.58738    -0.00333   0.14030   1.00
C4       0.47474    -0.02428   0.11679   1.00
C3c      0.42167    -0.08981   0.12180   1.00
H1       0.40137    -0.10024   0.13705   1.00
C3d      0.49980    -0.01150   0.09677   1.00
C3       0.39467    -0.14296   0.10743   1.00
O2       0.33744    -0.20319   0.11272   1.00
C3       0.47392    -0.06464   0.08252   1.00
H1       0.49639    -0.05303   0.06755   1.00
C2       0.42076    -0.13140   0.08739   1.00
C5       0.64952    0.03105    0.12955   1.00
H2       0.68825    0.07775    0.13761   1.00
H2       0.64171    0.04628    0.11412   1.00
C5       0.67704    -0.01761   0.12745   1.00
H2       0.63756    -0.06507   0.11990   1.00
H2       0.68525    -0.03197   0.14293   1.00
C5       0.74363    0.01500    0.11525   1.00
H2       0.78314    0.06269    0.12263   1.00
H2       0.73499    0.02719    0.09956   1.00
H2       0.76375    -0.02074   0.11426   1.00
C5       0.53278    0.09585    0.08551   1.00
C5       0.35664    -0.24904   0.12075   1.00
H2       0.50649    0.10577    0.09818   1.00
H2       0.49730    0.07567    0.07230   1.00
H2       0.38780    -0.22726   0.13476   1.00
H2       0.38778    -0.26008   0.10986   1.00
H2       0.28674    -0.39866   0.10781   1.00
H2       0.56938    0.23560    0.09331   1.00
H2       0.53516    0.20736    0.06797   1.00
C2       0.56416    0.13729    0.16040   1.00
C3       0.50548    0.12545    0.14955   1.00
O2       0.48644    0.17456    0.14894   1.00
C3       0.59007    0.09267    0.15721   1.00
H1       0.63385    0.09928    0.16566   1.00
C3a      0.47540    0.07113    0.13554   1.00
H1       0.43287    0.06513    0.12651   1.00
C3b      0.56136    0.04005    0.14280   1.00
C4       0.50366    0.02899    0.13179   1.00
O_3      0.55540    0.05062    0.09146   1.00
C5       0.43172    0.15745    0.16238   1.00
H2       0.38649    0.10726    0.15836   1.00
C5       0.41297    0.21348    0.16057   1.00
H2       0.44673    0.15498    0.17833   1.00
H2       0.38126    0.20366    0.14672   1.00
H2       0.46113    0.26253    0.15797   1.00
C5       0.37535    0.21846    0.17942   1.00
H2       0.33041    0.16769    0.18272   1.00
H2       0.35756    0.25565    0.17685   1.00
H2       0.40962    0.23681    0.19297   1.00
C5       0.59535    0.16283    0.07947   1.00
H2       0.61471    0.15529    0.06473   1.00
H2       0.63603    0.17515    0.09094   1.00
C5       0.57973    0.22152    0.07803   1.00
H2       0.62430    0.26758    0.07158   1.00
C5       1.06601    0.37203    0.04651   1.00
H2       1.07033    0.41161    0.03571   1.00
H2       1.01221    0.33001    0.04561   1.00
C5       1.11498    0.34641    0.03998   1.00
H2       1.09196    0.30778    0.02767   1.00
H2       1.12658    0.32318    0.05316   1.00
O_3      1.02262    0.41689    0.14877   1.00
C4       1.02443    0.50027    0.11683   1.00
C3c      1.01880    0.46427    0.09891   1.00
H1       0.97287    0.41632    0.09599   1.00
C3d      1.08433    0.56314    0.12020   1.00
C3       1.07231    0.48880    0.08467   1.00
O2       1.05993    0.45516    0.06642   1.00
C3       1.13821    0.58706    0.10624   1.00
H1       1.18408    0.63432    0.10982   1.00
C2       1.13366    0.55093    0.08815   1.00
C5       1.06866    0.45443    0.16446   1.00
H2       1.04312    0.44415    0.17954   1.00
H2       1.09397    0.51036    0.16148   1.00
C5       1.12253    0.43320    0.16526   1.00
H2       1.14673    0.44168    0.15002   1.00
H2       1.09677    0.37742    0.16843   1.00
C5       1.17628    0.47353    0.18151   1.00
H2       1.15240    0.46567    0.19675   1.00
H2       1.20367    0.52902    0.17798   1.00
H2       1.21437    0.45626    0.18218   1.00
C5       1.06680    0.64147    0.13678   1.00
C5       1.08043    0.40563    0.06746   1.00
H2       1.01081    0.61197    0.13415   1.00
H2       1.09099    0.67927    0.12426   1.00
H2       1.05039    0.36693    0.07931   1.00
H2       1.13563    0.42824    0.07139   1.00
H2       1.16368    0.38892    0.03374   1.00
H2       0.98173    0.67557    0.16100   1.00
H2       1.04325    0.74669    0.14572   1.00
C2       0.86673    0.42465    0.16176   1.00
C3       0.86464    0.46337    0.14527   1.00
O2       0.82293    0.49154    0.14595   1.00
C3       0.91986    0.40898    0.16241   1.00
H1       0.92190    0.37796    0.17454   1.00
C3a      0.91596    0.48679    0.13028   1.00
H1       0.91583    0.51962    0.11840   1.00
C3b      0.97202    0.43417    0.14783   1.00
C4       0.97046    0.47353    0.13163   1.00
O_3      1.09450    0.59799    0.13828   1.00
C5       0.76379    0.45240    0.13422   1.00
H2       0.77690    0.44984    0.11804   1.00
C5       0.72101    0.48744    0.13547   1.00
H2       0.73369    0.39946    0.14025   1.00
H2       0.74275    0.53133    0.12476   1.00
H2       0.72765    0.50928    0.15100   1.00
C5       0.64488    0.43876    0.13088   1.00
H2       0.63956    0.41335    0.11603   1.00
H2       0.61658    0.46720    0.13025   1.00
H2       0.62017    0.39928    0.14300   1.00
C5       1.08028    0.67955    0.15681   1.00
H2       1.13566    0.71778    0.15774   1.00
H2       1.06890    0.64247    0.16938   1.00
C5       1.03686    0.71409    0.15911   1.00
H2       1.05308    0.74706    0.17282   1.00
C5       0.61404    0.66379    0.04097   1.00
H2       0.56916    0.62821    0.03175   1.00
H2       0.65130    0.64572    0.03951   1.00
C5       0.64451    0.73695    0.03242   1.00
H2       0.67784    0.74444    0.01912   1.00
H2       0.67502    0.77493    0.04433   1.00
O_3      0.59838    0.60977    0.14524   1.00
C4       0.49966    0.52418    0.11685   1.00
C3c      0.53032    0.54574    0.09773   1.00
H1       0.57403    0.54078    0.09385   1.00
C3d      0.44215    0.53019    0.12149   1.00
C3       0.50596    0.57478    0.08346   1.00
O2       0.53321    0.58693    0.06422   1.00
C3       0.41857    0.56028    0.10746   1.00
H1       0.37582    0.56603    0.11197   1.00
C2       0.44944    0.58304    0.08813   1.00
C5       0.57019    0.62862    0.16137   1.00
H2       0.58330    0.61613    0.17647   1.00
H2       0.51350    0.60257    0.16014   1.00
C5       0.59928    0.70525    0.16018   1.00
H2       0.58785    0.71795    0.14488   1.00
H2       0.65582    0.73075    0.16161   1.00
C5       0.56930    0.72982    0.17682   1.00
H2       0.58011    0.71688    0.19213   1.00
H2       0.51312    0.70619    0.17498   1.00
H2       0.59227    0.78613    0.17598   1.00
C5       0.36378    0.44464    0.14149   1.00
C5       0.58804    0.65469    0.06283   1.00
H2       0.38702    0.41212    0.13886   1.00
H2       0.32256    0.43109    0.13007   1.00
H2       0.62926    0.66271    0.07366   1.00
H2       0.57241    0.69318    0.06648   1.00
H2       0.60357    0.74688    0.02692   1.00
H2       0.32638    0.33136    0.16870   1.00
H2       0.25373    0.32540    0.15512   1.00
C2       0.57601    0.44262    0.16172   1.00
C3       0.52923    0.39926    0.14696   1.00
O2       0.49486    0.32949    0.14965   1.00
C3       0.59913    0.51330    0.16062   1.00
H1       0.63627    0.54807    0.17137   1.00
C3a      0.50549    0.42678    0.13195   1.00
H1       0.46677    0.39241    0.12147   1.00
C3b      0.57378    0.54019    0.14607   1.00
C4       0.52648    0.49688    0.13160   1.00
O_3      0.41330    0.51453    0.14064   1.00
C5       0.52456    0.29961    0.13766   1.00
H2       0.52303    0.31054    0.12121   1.00
C5       0.48306    0.22255    0.14121   1.00
H2       0.57863    0.31884    0.14214   1.00
H2       0.43580    0.20136    0.13190   1.00
H2       0.46652    0.21438    0.15738   1.00
C5       0.52328    0.18592    0.13629   1.00
H2       0.54397    0.19900    0.12063   1.00
H2       0.48979    0.12960    0.13741   1.00
H2       0.56606    0.20035    0.14725   1.00
C5       0.33264    0.43012    0.16264   1.00
H2       0.29956    0.45337    0.16394   1.00
H2       0.37467    0.45650    0.17386   1.00
C5       0.29197    0.35318    0.16723   1.00
H2       0.26425    0.34421    0.18183   1.00
C5       0.34939    0.64498    0.70691   1.00
H2       0.34430    0.60244    0.71653   1.00
H2       0.35144    0.62984    0.69102   1.00
C5       0.28654    0.65388    0.71003   1.00
H2       0.24264    0.61629    0.70077   1.00
H2       0.29912    0.70634    0.70560   1.00
O_3      0.67285    0.92929    0.69617   1.00
C4       0.64233    0.80801    0.71653   1.00
C3c      0.57512    0.76014    0.71105   1.00
H1       0.56335    0.74394    0.69543   1.00
C3d      0.65676    0.82770    0.73702   1.00
C3       0.52208    0.73321    0.72546   1.00
O2       0.45951    0.68059    0.71948   1.00
C3       0.60383    0.80198    0.75133   1.00
H1       0.61693    0.82040    0.76673   1.00
C2       0.53545    0.75408    0.74601   1.00
C5       0.71130    0.98795    0.70818   1.00
H2       0.75931    1.02604    0.70053   1.00
H2       0.72500    0.97444    0.72305   1.00
C5       0.66767    1.02049    0.71194   1.00
H2       0.61886    0.98182    0.71907   1.00
H2       0.65484    1.03434    0.69701   1.00
C5       0.70485    1.08356    0.72555   1.00
H2       0.75387    1.12219    0.71859   1.00
H2       0.71558    1.06940    0.74071   1.00
H2       0.67279    1.10751    0.72775   1.00
C5       0.76180    0.84924    0.74740   1.00
C5       0.41779    0.70684    0.71284   1.00
H2       0.76878    0.82429    0.73381   1.00
H2       0.73926    0.81078    0.75982   1.00
H2       0.44143    0.74087    0.69947   1.00
H2       0.41019    0.73740    0.72482   1.00
H2       0.26908    0.64452    0.72617   1.00
H2       0.89798    0.87651    0.73835   1.00
H2       0.86788    0.83696    0.76304   1.00
C2       0.80429    0.89747    0.67305   1.00
C3       0.78751    0.83473    0.68228   1.00
O2       0.83237    0.81028    0.68146   1.00
C3       0.76433    0.92767    0.67778   1.00
H1       0.77474    0.97477    0.67057   1.00
C3a      0.73306    0.80481    0.69625   1.00
H1       0.72335    0.75881    0.70405   1.00
C3b      0.71162    0.89891    0.69216   1.00
C4       0.69568    0.83709    0.70156   1.00
O_3      0.72097    0.87845    0.74293   1.00
C5       0.81102    0.75844    0.66671   1.00
H2       0.75909    0.71498    0.67020   1.00
C5       0.86248    0.73335    0.66699   1.00
H2       0.81012    0.77840    0.65133   1.00
H2       0.85013    0.69769    0.67999   1.00
H2       0.91357    0.77825    0.67020   1.00
C5       0.86372    0.69866    0.64699   1.00
H2       0.81129    0.65745    0.64320   1.00
H2       0.89738    0.67610    0.64837   1.00
H2       0.88440    0.73612    0.63422   1.00
C5       0.83126    0.90660    0.75417   1.00
H2       0.82588    0.92360    0.76957   1.00
H2       0.84680    0.95073    0.74377   1.00
C5       0.88554    0.88461    0.75412   1.00
H2       0.93345    0.92506    0.76112   1.00
C5       0.42868    0.60416    0.72386   1.00
H2       0.40732    0.63889    0.72388   1.00
H2       0.44456    0.60329    0.70797   1.00
C5       0.49101    0.63261    0.73822   1.00
H2       0.53751    0.67314    0.73056   1.00
H2       0.50037    0.59089    0.74305   1.00
O_3      0.20038    0.25504    0.71931   1.00
C4       0.16586    0.35813    0.71638   1.00
C3c      0.22762    0.41920    0.71344   1.00
H1       0.25688    0.42622    0.69979   1.00
C3d      0.12803    0.35040    0.73414   1.00
C3       0.25308    0.47154    0.72807   1.00
O2       0.30939    0.53290    0.72305   1.00
C3       0.15388    0.40188    0.74891   1.00
H1       0.12426    0.39266    0.76261   1.00
C2       0.21662    0.46365    0.74628   1.00
C5       0.16192    0.20579    0.73419   1.00
H2       0.13539    0.15301    0.72792   1.00
H2       0.12277    0.21586    0.74107   1.00
C5       0.21093    0.21004    0.75063   1.00
H2       0.23884    0.26329    0.75651   1.00
H2       0.24939    0.19928    0.74364   1.00
C5       0.17282    0.15961    0.76785   1.00
H2       0.14445    0.10638    0.76206   1.00
H2       0.13609    0.17177    0.77530   1.00
H2       0.20963    0.16239    0.77950   1.00
C5       0.01277    0.28924    0.72964   1.00
C5       0.36930    0.53403    0.72972   1.00
H2       0.01738    0.29330    0.71284   1.00
H2       0.00646    0.33199    0.73551   1.00
H2       0.37448    0.49292    0.72206   1.00
H2       0.36929    0.52585    0.74646   1.00
H2       0.48306    0.65680    0.75195   1.00
H2       -0.10493   0.19723    0.70589   1.00
H2       -0.12127   0.25168    0.72245   1.00
C2       0.08959    0.19410    0.67353   1.00
C3       0.07458    0.24718    0.67115   1.00
O2       0.02261    0.23897    0.65843   1.00
C3       0.13276    0.19850    0.68969   1.00
H1       0.14665    0.15961    0.69162   1.00
C3a      0.10119    0.30185    0.68507   1.00
H1       0.08608    0.34004    0.68372   1.00
C3b      0.15735    0.25179    0.70388   1.00
C4       0.14153    0.30397    0.70167   1.00
O_3      0.06959    0.28933    0.73847   1.00
C5       0.04960    0.27363    0.63998   1.00
H2       0.08440    0.32935    0.64253   1.00
C5       -0.01085   0.26308    0.62693   1.00
H2       0.07839    0.25268    0.63190   1.00
H2       -0.02753   0.29920    0.63216   1.00
H2       -0.05388   0.21079    0.63009   1.00
C5       0.00575    0.27241    0.60407   1.00
H2       0.05207    0.32274    0.60140   1.00
H2       -0.03735   0.27005    0.59527   1.00
H2       0.01415    0.23103    0.59803   1.00
C5       -0.05025   0.22186    0.73511   1.00
H2       -0.06147   0.22298    0.75151   1.00
H2       -0.03796   0.18033    0.73310   1.00
C5       -0.11217   0.20774    0.72197   1.00
H2       -0.15867   0.16207    0.72775   1.00
C5       0.18554    0.57561    0.72190   1.00
H2       0.24184    0.59884    0.72245   1.00
H2       0.17093    0.56129    0.70580   1.00
C5       0.15202    0.51152    0.73558   1.00
H2       0.14878    0.46673    0.72756   1.00
H2       0.09977    0.49965    0.74000   1.00
O_3      0.05302    0.79428    0.71815   1.00
C4       0.19227    0.83417    0.71639   1.00
C3c      0.19453    0.77410    0.71301   1.00
H1       0.17464    0.74620    0.69902   1.00
C3d      0.21934    0.87029    0.73460   1.00
C3       0.22139    0.74859    0.72763   1.00
O2       0.22951    0.69435    0.72225   1.00
C3       0.24493    0.84432    0.74935   1.00
H1       0.26291    0.87249    0.76338   1.00
C2       0.24692    0.78326    0.74628   1.00
C5       0.03868    0.82965    0.73322   1.00
H2       0.01147    0.85523    0.72696   1.00
H2       0.08644    0.86917    0.74069   1.00
C5       -0.00674   0.77788    0.74900   1.00
H2       0.01964    0.75095    0.75484   1.00
H2       -0.05451   0.73905    0.74141   1.00
C5       -0.02289   0.81256    0.76639   1.00
H2       -0.04881   0.83995    0.76064   1.00
H2       0.02458    0.84963    0.77442   1.00
H2       -0.05734   0.77374    0.77754   1.00
C5       0.27010    0.98579    0.73129   1.00
C5       0.17137    0.63251    0.72810   1.00
H2       0.27164    0.98327    0.71446   1.00
H2       0.31922    0.99332    0.73752   1.00
H2       0.12523    0.62641    0.72009   1.00
H2       0.16114    0.63017    0.74477   1.00
H2       0.18291    0.51900    0.74957   1.00
H2       0.29396    1.10479    0.70856   1.00
H2       0.36360    1.12175    0.72569   1.00
C2       0.10431    0.91018    0.67352   1.00
C3       0.17339    0.92800    0.67170   1.00
O2       0.21726    0.98218    0.65966   1.00
C3       0.06478    0.86441    0.68910   1.00
H1       0.01131    0.84838    0.69058   1.00
C3a      0.20159    0.90150    0.68561   1.00
H1       0.25548    0.91868    0.68473   1.00
C3b      0.09351    0.83987    0.70331   1.00
C4       0.16244    0.85846    0.70167   1.00
O_3      0.21367    0.92680    0.73932   1.00
C5       0.22832    0.95833    0.64108   1.00
H2       0.25086    0.92488    0.64353   1.00
C5       0.27811    1.02109    0.62881   1.00
H2       0.17972    0.92905    0.63248   1.00
H2       0.33067    1.03899    0.63450   1.00
H2       0.26647    1.06239    0.63220   1.00
C5       0.27399    1.00729    0.60580   1.00
H2       0.28037    0.96249    0.60283   1.00
H2       0.31470    1.05220    0.59758   1.00
H2       0.22426    0.99772    0.59937   1.00
C5       0.26234    1.04657    0.73716   1.00
H2       0.27260    1.05609    0.75371   1.00
H2       0.20818    1.03253    0.73470   1.00
C5       0.30994    1.11069    0.72479   1.00
H2       0.30814    1.15549    0.73090   1.00
