data_IRMOF10_interpen_symm_ligand2lp_label_a.

_audit_creation_method             'generated by an auxiliary program of Tobunporous'

_symmetry_space_group_name_H-M     'P 1'
_symmetry_Int_Tables_number        1
_symmetry_cell_setting             triclinic

_cell_length_a                    22.6523
_cell_length_b                    22.6523
_cell_length_c                    65.9502
_cell_angle_alpha                 90.0000
_cell_angle_beta                  90.0000
_cell_angle_gamma                 120.0000

loop_
_atom_site_label
_atom_site_fract_x
_atom_site_fract_y
_atom_site_fract_z
_atom_site_occupancy
O1       0.00000    -0.00000   0.62500   1.00
Zn      0.00000    -0.00000   0.59589   1.00
Zn      0.94848    1.04288    0.63392   1.00
Zn      0.09439    0.05152    0.63392   1.00
Zn      -0.04288   0.90561    0.63392   1.00
O2       0.93860    0.02610    0.58587   1.00
O2       0.08750    0.06140    0.58587   1.00
O2       -0.02610   0.91250    0.58587   1.00
O2       0.91305    0.07161    0.61181   1.00
O2       0.00462    0.12022    0.65110   1.00
O2       0.87413    0.98074    0.65071   1.00
O2       0.15856    0.08695    0.61181   1.00
O2       0.10660    0.12587    0.65071   1.00
O2       0.11559    0.99538    0.65110   1.00
O2       -0.07161   0.84144    0.61181   1.00
O2       0.87978    0.88441    0.65110   1.00
O2       0.01926    0.89340    0.65071   1.00
C1       0.91390    0.06020    0.59358   1.00
C1       0.14630    0.08610    0.59358   1.00
C1       -0.06020   0.85370    0.59358   1.00
C1       0.06663    0.14397    0.65673   1.00
C1       0.85603    0.92267    0.65673   1.00
C1       0.07733    0.93337    0.65673   1.00
O1       -0.00000   0.00000    0.87500   1.00
Zn      -0.00000   0.00000    0.90411   1.00
Zn      1.04288    0.94848    0.86608   1.00
Zn      0.05152    0.09439    0.86608   1.00
Zn      0.90561    -0.04288   0.86608   1.00
O2       0.02610    0.93860    0.91413   1.00
O2       0.06140    0.08750    0.91413   1.00
O2       0.91250    -0.02610   0.91413   1.00
O2       0.07161    0.91305    0.88819   1.00
O2       0.12022    0.00462    0.84890   1.00
O2       0.98074    0.87413    0.84929   1.00
O2       0.08695    0.15856    0.88819   1.00
O2       0.12587    0.10660    0.84929   1.00
O2       0.99538    0.11559    0.84890   1.00
O2       0.84144    -0.07161   0.88819   1.00
O2       0.88441    0.87978    0.84890   1.00
O2       0.89340    0.01926    0.84929   1.00
C1       0.06020    0.91390    0.90642   1.00
C1       0.08610    0.14630    0.90642   1.00
C1       0.85370    -0.06020   0.90642   1.00
C1       0.14397    0.06663    0.84327   1.00
C1       0.92267    0.85603    0.84327   1.00
C1       0.93337    0.07733    0.84327   1.00
O1       0.00000    0.00000    0.37500   1.00
Zn      0.00000    0.00000    0.40411   1.00
Zn      0.05152    -0.04288   0.36608   1.00
Zn      0.90561    0.94848    0.36608   1.00
Zn      1.04288    0.09439    0.36608   1.00
O2       0.06140    -0.02610   0.41413   1.00
O2       0.91250    0.93860    0.41413   1.00
O2       0.02610    0.08750    0.41413   1.00
O2       0.08695    -0.07161   0.38819   1.00
O2       0.99538    0.87978    0.34890   1.00
O2       0.12587    0.01926    0.34929   1.00
O2       0.84144    0.91305    0.38819   1.00
O2       0.89340    0.87413    0.34929   1.00
O2       0.88441    0.00462    0.34890   1.00
O2       0.07161    0.15856    0.38819   1.00
O2       0.12022    0.11559    0.34890   1.00
O2       0.98074    0.10660    0.34929   1.00
C1       0.08610    -0.06020   0.40642   1.00
C1       0.85370    0.91390    0.40642   1.00
C1       0.06020    0.14630    0.40642   1.00
C1       0.93337    0.85603    0.34327   1.00
C1       0.14397    0.07733    0.34327   1.00
C1       0.92267    0.06663    0.34327   1.00
O1       0.00000    0.00000    0.12500   1.00
Zn      0.00000    0.00000    0.09589   1.00
Zn      -0.04288   0.05152    0.13392   1.00
Zn      0.94848    0.90561    0.13392   1.00
Zn      0.09439    1.04288    0.13392   1.00
O2       -0.02610   0.06140    0.08587   1.00
O2       0.93860    0.91250    0.08587   1.00
O2       0.08750    0.02610    0.08587   1.00
O2       -0.07161   0.08695    0.11181   1.00
O2       0.87978    0.99538    0.15110   1.00
O2       0.01926    0.12587    0.15071   1.00
O2       0.91305    0.84144    0.11181   1.00
O2       0.87413    0.89340    0.15071   1.00
O2       0.00462    0.88441    0.15110   1.00
O2       0.15856    0.07161    0.11181   1.00
O2       0.11559    0.12022    0.15110   1.00
O2       0.10660    0.98074    0.15071   1.00
C1       -0.06020   0.08610    0.09358   1.00
C1       0.91390    0.85370    0.09358   1.00
C1       0.14630    0.06020    0.09358   1.00
C1       0.85603    0.93337    0.15673   1.00
C1       0.07733    0.14397    0.15673   1.00
C1       0.06663    0.92267    0.15673   1.00
O1       0.66667    0.33333    0.95833   1.00
Zn      0.66667    0.33333    0.92922   1.00
Zn      0.61515    0.37621    0.96725   1.00
Zn      0.76106    0.38485    0.96725   1.00
Zn      -0.37621   0.23894    0.96725   1.00
O2       0.60527    0.35943    0.91920   1.00
O2       0.75417    0.39473    0.91920   1.00
O2       0.64057    0.24583    0.91920   1.00
O2       0.57972    0.40494    0.94514   1.00
O2       0.67129    0.45355    0.98443   1.00
O2       0.54080    0.31407    0.98404   1.00
O2       0.82523    0.42028    0.94514   1.00
O2       0.77327    0.45920    0.98404   1.00
O2       -0.21774   0.32871    0.98443   1.00
O2       0.59506    0.17477    0.94514   1.00
O2       0.54645    0.21774    0.98443   1.00
O2       -0.31407   0.22673    0.98404   1.00
C1       0.58057    0.39353    0.92691   1.00
C1       0.81297    0.41943    0.92691   1.00
C1       0.60647    0.18703    0.92691   1.00
C1       0.73330    0.47730    0.99006   1.00
C1       0.52270    0.25600    0.99006   1.00
C1       -0.25600   0.26670    0.99006   1.00
O1       0.66667    0.33333    0.20833   1.00
Zn      0.66667    0.33333    0.23744   1.00
Zn      0.70954    0.28182    0.19942   1.00
Zn      0.71818    0.42773    0.19942   1.00
Zn      0.57227    0.29046    0.19942   1.00
O2       0.69277    0.27193    0.24746   1.00
O2       0.72807    0.42083    0.24746   1.00
O2       0.57917    0.30723    0.24746   1.00
O2       0.73828    0.24638    0.22152   1.00
O2       0.78688    0.33796    0.18224   1.00
O2       0.64740    0.20747    0.18263   1.00
O2       0.75362    0.49189    0.22152   1.00
O2       0.79253    0.43994    0.18263   1.00
O2       0.66204    0.44893    0.18224   1.00
O2       0.50811    0.26172    0.22152   1.00
O2       0.55107    0.21312    0.18224   1.00
O2       0.56006    0.35260    0.18263   1.00
C1       0.72687    0.24723    0.23975   1.00
C1       0.75277    0.47963    0.23975   1.00
C1       0.52037    0.27313    0.23975   1.00
C1       0.81063    0.39997    0.17661   1.00
C1       0.58933    0.18937    0.17661   1.00
C1       0.60003    0.41067    0.17661   1.00
O1       0.66667    0.33333    0.70833   1.00
Zn      0.66667    0.33333    0.73744   1.00
Zn      0.71818    0.29046    0.69942   1.00
Zn      0.57227    0.28182    0.69942   1.00
Zn      0.70954    0.42773    0.69942   1.00
O2       0.72807    0.30723    0.74746   1.00
O2       0.57917    0.27193    0.74746   1.00
O2       0.69277    0.42083    0.74746   1.00
O2       0.75362    0.26172    0.72152   1.00
O2       0.66204    0.21312    0.68224   1.00
O2       0.79253    0.35260    0.68263   1.00
O2       0.50811    0.24638    0.72152   1.00
O2       0.56006    0.20747    0.68263   1.00
O2       0.55107    0.33796    0.68224   1.00
O2       0.73828    0.49189    0.72152   1.00
O2       0.78688    0.44893    0.68224   1.00
O2       0.64740    0.43994    0.68263   1.00
C1       0.75277    0.27313    0.73975   1.00
C1       0.52037    0.24723    0.73975   1.00
C1       0.72687    0.47963    0.73975   1.00
C1       0.60003    0.18937    0.67661   1.00
C1       0.81063    0.41067    0.67661   1.00
C1       0.58933    0.39997    0.67661   1.00
O1       0.66667    0.33333    0.45833   1.00
Zn      0.66667    0.33333    0.42922   1.00
Zn      -0.37621   0.38485    0.46725   1.00
Zn      0.61515    0.23894    0.46725   1.00
Zn      0.76106    0.37621    0.46725   1.00
O2       0.64057    0.39473    0.41920   1.00
O2       0.60527    0.24583    0.41920   1.00
O2       0.75417    0.35943    0.41920   1.00
O2       0.59506    0.42028    0.44514   1.00
O2       0.54645    0.32871    0.48443   1.00
O2       -0.31407   0.45920    0.48404   1.00
O2       0.57972    0.17477    0.44514   1.00
O2       0.54080    0.22673    0.48404   1.00
O2       0.67129    0.21774    0.48443   1.00
O2       0.82523    0.40494    0.44514   1.00
O2       -0.21774   0.45355    0.48443   1.00
O2       0.77327    0.31407    0.48404   1.00
C1       0.60647    0.41943    0.42691   1.00
C1       0.58057    0.18703    0.42691   1.00
C1       0.81297    0.39353    0.42691   1.00
C1       0.52270    0.26670    0.49006   1.00
C1       -0.25600   0.47730    0.49006   1.00
C1       0.73330    0.25600    0.49006   1.00
O1       0.33333    0.66667    0.29167   1.00
Zn      0.33333    0.66667    0.26256   1.00
Zn      0.28182    0.70954    0.30058   1.00
Zn      0.42773    0.71818    0.30058   1.00
Zn      0.29046    0.57227    0.30058   1.00
O2       0.27193    0.69277    0.25254   1.00
O2       0.42083    0.72807    0.25254   1.00
O2       0.30723    0.57917    0.25254   1.00
O2       0.24638    0.73828    0.27848   1.00
O2       0.33796    0.78688    0.31776   1.00
O2       0.20747    0.64740    0.31737   1.00
O2       0.49189    0.75362    0.27848   1.00
O2       0.43994    0.79253    0.31737   1.00
O2       0.44893    0.66204    0.31776   1.00
O2       0.26172    0.50811    0.27848   1.00
O2       0.21312    0.55107    0.31776   1.00
O2       0.35260    0.56006    0.31737   1.00
C1       0.24723    0.72687    0.26025   1.00
C1       0.47963    0.75277    0.26025   1.00
C1       0.27313    0.52037    0.26025   1.00
C1       0.39997    0.81063    0.32339   1.00
C1       0.18937    0.58933    0.32339   1.00
C1       0.41067    0.60003    0.32339   1.00
O1       0.33333    0.66667    0.54167   1.00
Zn      0.33333    0.66667    0.57078   1.00
Zn      0.37621    0.61515    0.53275   1.00
Zn      0.38485    0.76106    0.53275   1.00
Zn      0.23894    -0.37621   0.53275   1.00
O2       0.35943    0.60527    0.58080   1.00
O2       0.39473    0.75417    0.58080   1.00
O2       0.24583    0.64057    0.58080   1.00
O2       0.40494    0.57972    0.55486   1.00
O2       0.45355    0.67129    0.51557   1.00
O2       0.31407    0.54080    0.51596   1.00
O2       0.42028    0.82523    0.55486   1.00
O2       0.45920    0.77327    0.51596   1.00
O2       0.32871    -0.21774   0.51557   1.00
O2       0.17477    0.59506    0.55486   1.00
O2       0.21774    0.54645    0.51557   1.00
O2       0.22673    -0.31407   0.51596   1.00
C1       0.39353    0.58057    0.57309   1.00
C1       0.41943    0.81297    0.57309   1.00
C1       0.18703    0.60647    0.57309   1.00
C1       0.47730    0.73330    0.50994   1.00
C1       0.25600    0.52270    0.50994   1.00
C1       0.26670    -0.25600   0.50994   1.00
O1       0.33333    0.66667    0.04167   1.00
Zn      0.33333    0.66667    0.07078   1.00
Zn      0.38485    -0.37621   0.03275   1.00
Zn      0.23894    0.61515    0.03275   1.00
Zn      0.37621    0.76106    0.03275   1.00
O2       0.39473    0.64057    0.08080   1.00
O2       0.24583    0.60527    0.08080   1.00
O2       0.35943    0.75417    0.08080   1.00
O2       0.42028    0.59506    0.05486   1.00
O2       0.32871    0.54645    0.01557   1.00
O2       0.45920    -0.31407   0.01596   1.00
O2       0.17477    0.57972    0.05486   1.00
O2       0.22673    0.54080    0.01596   1.00
O2       0.21774    0.67129    0.01557   1.00
O2       0.40494    0.82523    0.05486   1.00
O2       0.45355    -0.21774   0.01557   1.00
O2       0.31407    0.77327    0.01596   1.00
C1       0.41943    0.60647    0.07309   1.00
C1       0.18703    0.58057    0.07309   1.00
C1       0.39353    0.81297    0.07309   1.00
C1       0.26670    0.52270    0.00994   1.00
C1       0.47730    -0.25600   0.00994   1.00
C1       0.25600    0.73330    0.00994   1.00
O1       0.33333    0.66667    0.79167   1.00
Zn      0.33333    0.66667    0.76256   1.00
Zn      0.29046    0.71818    0.80058   1.00
Zn      0.28182    0.57227    0.80058   1.00
Zn      0.42773    0.70954    0.80058   1.00
O2       0.30723    0.72807    0.75254   1.00
O2       0.27193    0.57917    0.75254   1.00
O2       0.42083    0.69277    0.75254   1.00
O2       0.26172    0.75362    0.77848   1.00
O2       0.21312    0.66204    0.81776   1.00
O2       0.35260    0.79253    0.81737   1.00
O2       0.24638    0.50811    0.77848   1.00
O2       0.20747    0.56006    0.81737   1.00
O2       0.33796    0.55107    0.81776   1.00
O2       0.49189    0.73828    0.77848   1.00
O2       0.44893    0.78688    0.81776   1.00
O2       0.43994    0.64740    0.81737   1.00
C1       0.27313    0.75277    0.76025   1.00
C1       0.24723    0.52037    0.76025   1.00
C1       0.47963    0.72687    0.76025   1.00
C1       0.18937    0.60003    0.82339   1.00
C1       0.41067    0.81063    0.82339   1.00
C1       0.39997    0.58933    0.82339   1.00
C2       -0.22113   0.51404    0.51268   1.00
C3       -0.22920   0.50719    0.53266   1.00
H1       -0.25287   0.46352    0.53812   1.00
C3       -0.18502   0.57811    0.50503   1.00
H1       -0.17790   0.58403    0.49111   1.00
C3a      -0.20376   0.56218    0.54558   1.00
H1       -0.20923   0.55740    0.55957   1.00
C3b      -0.15834   0.63483    0.51742   1.00
H1       -0.13273   0.67856    0.51213   1.00
C6       -0.16647   0.62729    0.53802   1.00
C6       -0.13714   0.68779    0.55146   1.00
C3c      -0.07330   0.71193    0.56000   1.00
H1       -0.04639   0.69356    0.55609   1.00
C3d      -0.17630   0.71799    0.55546   1.00
H1       -0.21960   0.70269    0.55015   1.00
C3       -0.04870   0.76664    0.57326   1.00
H1       -0.00530   0.78374    0.57879   1.00
C3       -0.14804   0.77339    0.56977   1.00
H1       -0.17314   0.79420    0.57311   1.00
C2       -0.08630   0.79640    0.57845   1.00
C2       0.48596    0.26483    0.51268   1.00
C3       0.49281    0.26361    0.53266   1.00
H1       0.53648    0.28361    0.53812   1.00
C3       0.42189    0.23687    0.50503   1.00
H1       0.41597    0.23807    0.49111   1.00
C3a      0.43782    0.23406    0.54558   1.00
H1       0.44260    0.23336    0.55957   1.00
C3b      0.36517    0.20683    0.51742   1.00
H1       0.32144    0.18871    0.51213   1.00
C6       0.37271    0.20624    0.53802   1.00
C6       0.31221    0.17507    0.55146   1.00
C3c      0.28807    0.21477    0.56000   1.00
H1       0.30644    0.26005    0.55609   1.00
C3d      0.28201    0.10571    0.55546   1.00
H1       0.29731    0.07771    0.55015   1.00
C3       0.23336    0.18466    0.57326   1.00
H1       0.21626    0.21096    0.57879   1.00
C3       0.22661    0.07857    0.56977   1.00
H1       0.20580    0.03266    0.57311   1.00
C2       0.20360    0.11730    0.57845   1.00
C2       0.73517    0.22113    0.51268   1.00
C3       0.73639    0.22920    0.53266   1.00
H1       0.71639    0.25287    0.53812   1.00
C3       0.76313    0.18502    0.50503   1.00
H1       0.76193    0.17790    0.49111   1.00
C3a      0.76594    0.20376    0.54558   1.00
H1       0.76664    0.20923    0.55957   1.00
C3b      0.79317    0.15834    0.51742   1.00
H1       0.81129    0.13273    0.51213   1.00
C6       0.79376    0.16647    0.53802   1.00
C6       0.82493    0.13714    0.55146   1.00
C3c      0.78523    0.07330    0.56000   1.00
H1       0.73995    0.04639    0.55609   1.00
C3d      0.89429    0.17630    0.55546   1.00
H1       0.92229    0.21960    0.55015   1.00
C3       0.81534    0.04870    0.57326   1.00
H1       0.78904    0.00530    0.57879   1.00
C3       0.92143    0.14804    0.56977   1.00
H1       0.96734    0.17314    0.57311   1.00
C2       0.88270    0.08630    0.57845   1.00
C2       0.51404    -0.22113   0.98732   1.00
C3       0.50719    -0.22920   0.96734   1.00
H1       0.46352    -0.25287   0.96188   1.00
C3       0.57811    -0.18502   0.99497   1.00
H1       0.58403    -0.17790   0.00889   1.00
C3a      0.56218    -0.20376   0.95442   1.00
H1       0.55740    -0.20923   0.94043   1.00
C3b      0.63483    -0.15834   0.98258   1.00
H1       0.67856    -0.13273   0.98787   1.00
C6       0.62729    -0.16647   0.96198   1.00
C6       0.68779    -0.13714   0.94854   1.00
C3c      0.71193    -0.07330   0.94000   1.00
H1       0.69356    -0.04639   0.94391   1.00
C3d      0.71799    -0.17630   0.94454   1.00
H1       0.70269    -0.21960   0.94985   1.00
C3       0.76664    -0.04870   0.92674   1.00
H1       0.78374    -0.00530   0.92121   1.00
C3       0.77339    -0.14804   0.93023   1.00
H1       0.79420    -0.17314   0.92689   1.00
C2       0.79640    -0.08630   0.92155   1.00
C2       0.26483    0.48596    0.98732   1.00
C3       0.26361    0.49281    0.96734   1.00
H1       0.28361    0.53648    0.96188   1.00
C3       0.23687    0.42189    0.99497   1.00
H1       0.23807    0.41597    0.00889   1.00
C3a      0.23406    0.43782    0.95442   1.00
H1       0.23336    0.44260    0.94043   1.00
C3b      0.20683    0.36517    0.98258   1.00
H1       0.18871    0.32144    0.98787   1.00
C6       0.20624    0.37271    0.96198   1.00
C6       0.17507    0.31221    0.94854   1.00
C3c      0.21477    0.28807    0.94000   1.00
H1       0.26005    0.30644    0.94391   1.00
C3d      0.10571    0.28201    0.94454   1.00
H1       0.07771    0.29731    0.94985   1.00
C3       0.18466    0.23336    0.92674   1.00
H1       0.21096    0.21626    0.92121   1.00
C3       0.07857    0.22661    0.93023   1.00
H1       0.03266    0.20580    0.92689   1.00
C2       0.11730    0.20360    0.92155   1.00
C2       0.22113    0.73517    0.98732   1.00
C3       0.22920    0.73639    0.96734   1.00
H1       0.25287    0.71639    0.96188   1.00
C3       0.18502    0.76313    0.99497   1.00
H1       0.17790    0.76193    0.00889   1.00
C3a      0.20376    0.76594    0.95442   1.00
H1       0.20923    0.76664    0.94043   1.00
C3b      0.15834    0.79317    0.98258   1.00
H1       0.13273    0.81129    0.98787   1.00
C6       0.16647    0.79376    0.96198   1.00
C6       0.13714    0.82493    0.94854   1.00
C3c      0.07330    0.78523    0.94000   1.00
H1       0.04639    0.73995    0.94391   1.00
C3d      0.17630    0.89429    0.94454   1.00
H1       0.21960    0.92229    0.94985   1.00
C3       0.04870    0.81534    0.92674   1.00
H1       0.00530    0.78904    0.92121   1.00
C3       0.14804    0.92143    0.93023   1.00
H1       0.17314    0.96734    0.92689   1.00
C2       0.08630    0.88270    0.92155   1.00
C2       0.22113    0.48596    0.48732   1.00
C3       0.22920    0.49281    0.46734   1.00
H1       0.25287    0.53648    0.46188   1.00
C3       0.18502    0.42189    0.49497   1.00
H1       0.17790    0.41597    0.50889   1.00
C3a      0.20376    0.43782    0.45442   1.00
H1       0.20923    0.44260    0.44043   1.00
C3b      0.15834    0.36517    0.48258   1.00
H1       0.13273    0.32144    0.48787   1.00
C6       0.16647    0.37271    0.46198   1.00
C6       0.13714    0.31221    0.44854   1.00
C3c      0.07330    0.28807    0.44000   1.00
H1       0.04639    0.30644    0.44391   1.00
C3d      0.17630    0.28201    0.44454   1.00
H1       0.21960    0.29731    0.44985   1.00
C3       0.04870    0.23336    0.42674   1.00
H1       0.00530    0.21626    0.42121   1.00
C3       0.14804    0.22661    0.43023   1.00
H1       0.17314    0.20580    0.42689   1.00
C2       0.08630    0.20360    0.42155   1.00
C2       0.51404    0.73517    0.48732   1.00
C3       0.50719    0.73639    0.46734   1.00
H1       0.46352    0.71639    0.46188   1.00
C3       0.57811    0.76313    0.49497   1.00
H1       0.58403    0.76193    0.50889   1.00
C3a      0.56218    0.76594    0.45442   1.00
H1       0.55740    0.76664    0.44043   1.00
C3b      0.63483    0.79317    0.48258   1.00
H1       0.67856    0.81129    0.48787   1.00
C6       0.62729    0.79376    0.46198   1.00
C6       0.68779    0.82493    0.44854   1.00
C3c      0.71193    0.78523    0.44000   1.00
H1       0.69356    0.73995    0.44391   1.00
C3d      0.71799    0.89429    0.44454   1.00
H1       0.70269    0.92229    0.44985   1.00
C3       0.76664    0.81534    0.42674   1.00
H1       0.78374    0.78904    0.42121   1.00
C3       0.77339    0.92143    0.43023   1.00
H1       0.79420    0.96734    0.42689   1.00
C2       0.79640    0.88270    0.42155   1.00
C2       0.26483    -0.22113   0.48732   1.00
C3       0.26361    -0.22920   0.46734   1.00
H1       0.28361    -0.25287   0.46188   1.00
C3       0.23687    -0.18502   0.49497   1.00
H1       0.23807    -0.17790   0.50889   1.00
C3a      0.23406    -0.20376   0.45442   1.00
H1       0.23336    -0.20923   0.44043   1.00
C3b      0.20683    -0.15834   0.48258   1.00
H1       0.18871    -0.13273   0.48787   1.00
C6       0.20624    -0.16647   0.46198   1.00
C6       0.17507    -0.13714   0.44854   1.00
C3c      0.21477    -0.07330   0.44000   1.00
H1       0.26005    -0.04639   0.44391   1.00
C3d      0.10571    -0.17630   0.44454   1.00
H1       0.07771    -0.21960   0.44985   1.00
C3       0.18466    -0.04870   0.42674   1.00
H1       0.21096    -0.00530   0.42121   1.00
C3       0.07857    -0.14804   0.43023   1.00
H1       0.03266    -0.17314   0.42689   1.00
C2       0.11730    -0.08630   0.42155   1.00
C2       0.48596    0.22113    0.01268   1.00
C3       0.49281    0.22920    0.03266   1.00
H1       0.53648    0.25287    0.03812   1.00
C3       0.42189    0.18502    0.00503   1.00
H1       0.41597    0.17790    0.99111   1.00
C3a      0.43782    0.20376    0.04558   1.00
H1       0.44260    0.20923    0.05957   1.00
C3b      0.36517    0.15834    0.01742   1.00
H1       0.32144    0.13273    0.01213   1.00
C6       0.37271    0.16647    0.03802   1.00
C6       0.31221    0.13714    0.05146   1.00
C3c      0.28807    0.07330    0.06000   1.00
H1       0.30644    0.04639    0.05609   1.00
C3d      0.28201    0.17630    0.05546   1.00
H1       0.29731    0.21960    0.05015   1.00
C3       0.23336    0.04870    0.07326   1.00
H1       0.21626    0.00530    0.07879   1.00
C3       0.22661    0.14804    0.06977   1.00
H1       0.20580    0.17314    0.07311   1.00
C2       0.20360    0.08630    0.07845   1.00
C2       0.73517    0.51404    0.01268   1.00
C3       0.73639    0.50719    0.03266   1.00
H1       0.71639    0.46352    0.03812   1.00
C3       0.76313    0.57811    0.00503   1.00
H1       0.76193    0.58403    0.99111   1.00
C3a      0.76594    0.56218    0.04558   1.00
H1       0.76664    0.55740    0.05957   1.00
C3b      0.79317    0.63483    0.01742   1.00
H1       0.81129    0.67856    0.01213   1.00
C6       0.79376    0.62729    0.03802   1.00
C6       0.82493    0.68779    0.05146   1.00
C3c      0.78523    0.71193    0.06000   1.00
H1       0.73995    0.69356    0.05609   1.00
C3d      0.89429    0.71799    0.05546   1.00
H1       0.92229    0.70269    0.05015   1.00
C3       0.81534    0.76664    0.07326   1.00
H1       0.78904    0.78374    0.07879   1.00
C3       0.92143    0.77339    0.06977   1.00
H1       0.96734    0.79420    0.07311   1.00
C2       0.88270    0.79640    0.07845   1.00
C2       -0.22113   0.26483    0.01268   1.00
C3       -0.22920   0.26361    0.03266   1.00
H1       -0.25287   0.28361    0.03812   1.00
C3       -0.18502   0.23687    0.00503   1.00
H1       -0.17790   0.23807    0.99111   1.00
C3a      -0.20376   0.23406    0.04558   1.00
H1       -0.20923   0.23336    0.05957   1.00
C3b      -0.15834   0.20683    0.01742   1.00
H1       -0.13273   0.18871    0.01213   1.00
C6       -0.16647   0.20624    0.03802   1.00
C6       -0.13714   0.17507    0.05146   1.00
C3c      -0.07330   0.21477    0.06000   1.00
H1       -0.04639   0.26005    0.05609   1.00
C3d      -0.17630   0.10571    0.05546   1.00
H1       -0.21960   0.07771    0.05015   1.00
C3       -0.04870   0.18466    0.07326   1.00
H1       -0.00530   0.21096    0.07879   1.00
C3       -0.14804   0.07857    0.06977   1.00
H1       -0.17314   0.03266    0.07311   1.00
C2       -0.08630   0.11730    0.07845   1.00
C2       0.44554    0.84737    0.84601   1.00
C3       0.43747    0.84052    0.86599   1.00
H1       0.41380    0.79685    0.87145   1.00
C3       0.48165    0.91144    0.83836   1.00
H1       0.48877    0.91736    0.82444   1.00
C3a      0.46291    0.89551    0.87891   1.00
H1       0.45744    0.89073    0.89290   1.00
C3b      0.50833    0.96816    0.85075   1.00
H1       0.53394    1.01189    0.84546   1.00
C6       0.50020    0.96062    0.87135   1.00
C6       0.52953    0.02112    0.88479   1.00
C3c      0.59337    0.04526    0.89333   1.00
H1       0.62028    0.02689    0.88942   1.00
C3d      0.49037    0.05132    0.88879   1.00
H1       0.44707    0.03602    0.88348   1.00
C3       0.61797    0.09997    0.90659   1.00
H1       0.66137    0.11707    0.91212   1.00
C3       0.51863    0.10672    0.90310   1.00
H1       0.49353    0.12753    0.90644   1.00
C2       0.58037    0.12973    0.91178   1.00
C2       0.15263    0.59816    0.84601   1.00
C3       0.15948    0.59694    0.86599   1.00
H1       0.20315    0.61694    0.87145   1.00
C3       0.08856    0.57020    0.83836   1.00
H1       0.08264    0.57140    0.82444   1.00
C3a      0.10449    0.56739    0.87891   1.00
H1       0.10927    0.56669    0.89290   1.00
C3b      0.03184    0.54016    0.85075   1.00
H1       -0.01189   0.52204    0.84546   1.00
C6       0.03938    0.53957    0.87135   1.00
C6       0.97888    0.50840    0.88479   1.00
C3c      0.95474    0.54810    0.89333   1.00
H1       0.97311    0.59338    0.88942   1.00
C3d      0.94868    0.43904    0.88879   1.00
H1       0.96398    0.41104    0.88348   1.00
C3       0.90003    0.51799    0.90659   1.00
H1       0.88293    0.54429    0.91212   1.00
C3       0.89328    0.41190    0.90310   1.00
H1       0.87247    0.36599    0.90644   1.00
C2       0.87027    0.45063    0.91178   1.00
C2       0.40184    0.55446    0.84601   1.00
C3       0.40306    0.56253    0.86599   1.00
H1       0.38306    0.58620    0.87145   1.00
C3       0.42980    0.51835    0.83836   1.00
H1       0.42860    0.51123    0.82444   1.00
C3a      0.43261    0.53709    0.87891   1.00
H1       0.43331    0.54256    0.89290   1.00
C3b      0.45984    0.49167    0.85075   1.00
H1       0.47796    0.46606    0.84546   1.00
C6       0.46043    0.49980    0.87135   1.00
C6       0.49160    0.47047    0.88479   1.00
C3c      0.45190    0.40663    0.89333   1.00
H1       0.40662    0.37972    0.88942   1.00
C3d      0.56096    0.50963    0.88879   1.00
H1       0.58896    0.55293    0.88348   1.00
C3       0.48201    0.38203    0.90659   1.00
H1       0.45571    0.33863    0.91212   1.00
C3       0.58810    0.48137    0.90310   1.00
H1       0.63401    0.50647    0.90644   1.00
C2       0.54937    0.41963    0.91178   1.00
C2       0.18071    0.11220    0.32065   1.00
C3       0.17386    0.10413    0.30067   1.00
H1       0.13019    0.08046    0.29521   1.00
C3       0.24478    0.14831    0.32830   1.00
H1       0.25070    0.15543    0.34222   1.00
C3a      0.22885    0.12957    0.28775   1.00
H1       0.22407    0.12410    0.27376   1.00
C3b      0.30150    0.17499    0.31591   1.00
H1       0.34523    0.20060    0.32120   1.00
C6       0.29396    0.16686    0.29531   1.00
C6       0.35446    0.19619    0.28187   1.00
C3c      0.37860    0.26003    0.27333   1.00
H1       0.36023    0.28694    0.27724   1.00
C3d      0.38466    0.15703    0.27787   1.00
H1       0.36936    0.11373    0.28318   1.00
C3       0.43331    0.28463    0.26007   1.00
H1       0.45041    0.32803    0.25454   1.00
C3       0.44006    0.18529    0.26356   1.00
H1       0.46087    0.16019    0.26022   1.00
C2       0.46307    0.24703    0.25488   1.00
C2       0.93150    0.81929    0.32065   1.00
C3       0.93028    0.82614    0.30067   1.00
H1       0.95028    0.86981    0.29521   1.00
C3       0.90354    0.75522    0.32830   1.00
H1       0.90474    0.74930    0.34222   1.00
C3a      0.90073    0.77115    0.28775   1.00
H1       0.90003    0.77593    0.27376   1.00
C3b      0.87350    0.69850    0.31591   1.00
H1       0.85538    0.65477    0.32120   1.00
C6       0.87291    0.70604    0.29531   1.00
C6       0.84174    0.64554    0.28187   1.00
C3c      0.88144    0.62140    0.27333   1.00
H1       0.92672    0.63977    0.27724   1.00
C3d      0.77238    0.61534    0.27787   1.00
H1       0.74438    0.63064    0.28318   1.00
C3       0.85133    0.56669    0.26007   1.00
H1       0.87763    0.54959    0.25454   1.00
C3       0.74524    0.55994    0.26356   1.00
H1       0.69933    0.53913    0.26022   1.00
C2       0.78397    0.53693    0.25488   1.00
C2       0.88780    0.06850    0.32065   1.00
C3       0.89587    0.06972    0.30067   1.00
H1       0.91954    0.04972    0.29521   1.00
C3       0.85169    0.09646    0.32830   1.00
H1       0.84457    0.09526    0.34222   1.00
C3a      0.87043    0.09927    0.28775   1.00
H1       0.87590    0.09997    0.27376   1.00
C3b      0.82501    0.12650    0.31591   1.00
H1       0.79940    0.14462    0.32120   1.00
C6       0.83314    0.12709    0.29531   1.00
C6       0.80381    0.15826    0.28187   1.00
C3c      0.73997    0.11856    0.27333   1.00
H1       0.71306    0.07328    0.27724   1.00
C3d      0.84297    0.22762    0.27787   1.00
H1       0.88627    0.25562    0.28318   1.00
C3       0.71537    0.14867    0.26007   1.00
H1       0.67197    0.12237    0.25454   1.00
C3       0.81471    0.25476    0.26356   1.00
H1       0.83981    0.30067    0.26022   1.00
C2       0.75297    0.21603    0.25488   1.00
C2       0.88780    0.81929    0.82065   1.00
C3       0.89587    0.82614    0.80067   1.00
H1       0.91954    0.86981    0.79521   1.00
C3       0.85169    0.75522    0.82830   1.00
H1       0.84457    0.74930    0.84222   1.00
C3a      0.87043    0.77115    0.78775   1.00
H1       0.87590    0.77593    0.77376   1.00
C3b      0.82501    0.69850    0.81591   1.00
H1       0.79940    0.65477    0.82120   1.00
C6       0.83314    0.70604    0.79531   1.00
C6       0.80381    0.64554    0.78187   1.00
C3c      0.73997    0.62140    0.77333   1.00
H1       0.71306    0.63977    0.77724   1.00
C3d      0.84297    0.61534    0.77787   1.00
H1       0.88627    0.63064    0.78318   1.00
C3       0.71537    0.56669    0.76007   1.00
H1       0.67197    0.54959    0.75454   1.00
C3       0.81471    0.55994    0.76356   1.00
H1       0.83981    0.53913    0.76022   1.00
C2       0.75297    0.53693    0.75488   1.00
C2       0.18071    0.06850    0.82065   1.00
C3       0.17386    0.06972    0.80067   1.00
H1       0.13019    0.04972    0.79521   1.00
C3       0.24478    0.09646    0.82830   1.00
H1       0.25070    0.09526    0.84222   1.00
C3a      0.22885    0.09927    0.78775   1.00
H1       0.22407    0.09997    0.77376   1.00
C3b      0.30150    0.12650    0.81591   1.00
H1       0.34523    0.14462    0.82120   1.00
C6       0.29396    0.12709    0.79531   1.00
C6       0.35446    0.15826    0.78187   1.00
C3c      0.37860    0.11856    0.77333   1.00
H1       0.36023    0.07328    0.77724   1.00
C3d      0.38466    0.22762    0.77787   1.00
H1       0.36936    0.25562    0.78318   1.00
C3       0.43331    0.14867    0.76007   1.00
H1       0.45041    0.12237    0.75454   1.00
C3       0.44006    0.25476    0.76356   1.00
H1       0.46087    0.30067    0.76022   1.00
C2       0.46307    0.21603    0.75488   1.00
C2       0.93150    0.11220    0.82065   1.00
C3       0.93028    0.10413    0.80067   1.00
H1       0.95028    0.08046    0.79521   1.00
C3       0.90354    0.14831    0.82830   1.00
H1       0.90474    0.15543    0.84222   1.00
C3a      0.90073    0.12957    0.78775   1.00
H1       0.90003    0.12410    0.77376   1.00
C3b      0.87350    0.17499    0.81591   1.00
H1       0.85538    0.20060    0.82120   1.00
C6       0.87291    0.16686    0.79531   1.00
C6       0.84174    0.19619    0.78187   1.00
C3c      0.88144    0.26003    0.77333   1.00
H1       0.92672    0.28694    0.77724   1.00
C3d      0.77238    0.15703    0.77787   1.00
H1       0.74438    0.11373    0.78318   1.00
C3       0.85133    0.28463    0.76007   1.00
H1       0.87763    0.32803    0.75454   1.00
C3       0.74524    0.18529    0.76356   1.00
H1       0.69933    0.16019    0.76022   1.00
C2       0.78397    0.24703    0.75488   1.00
C2       0.15263    0.55446    0.34601   1.00
C3       0.15948    0.56253    0.36599   1.00
H1       0.20315    0.58620    0.37145   1.00
C3       0.08856    0.51835    0.33836   1.00
H1       0.08264    0.51123    0.32444   1.00
C3a      0.10449    0.53709    0.37891   1.00
H1       0.10927    0.54256    0.39290   1.00
C3b      0.03184    0.49167    0.35075   1.00
H1       -0.01189   0.46606    0.34546   1.00
C6       0.03938    0.49980    0.37135   1.00
C6       0.97888    0.47047    0.38479   1.00
C3c      0.95474    0.40663    0.39333   1.00
H1       0.97311    0.37972    0.38942   1.00
C3d      0.94868    0.50963    0.38879   1.00
H1       0.96398    0.55293    0.38348   1.00
C3       0.90003    0.38203    0.40659   1.00
H1       0.88293    0.33863    0.41212   1.00
C3       0.89328    0.48137    0.40310   1.00
H1       0.87247    0.50647    0.40644   1.00
C2       0.87027    0.41963    0.41178   1.00
C2       0.40184    0.84737    0.34601   1.00
C3       0.40306    0.84052    0.36599   1.00
H1       0.38306    0.79685    0.37145   1.00
C3       0.42980    0.91144    0.33836   1.00
H1       0.42860    0.91736    0.32444   1.00
C3a      0.43261    0.89551    0.37891   1.00
H1       0.43331    0.89073    0.39290   1.00
C3b      0.45984    0.96816    0.35075   1.00
H1       0.47796    1.01189    0.34546   1.00
C6       0.46043    0.96062    0.37135   1.00
C6       0.49160    0.02112    0.38479   1.00
C3c      0.45190    0.04526    0.39333   1.00
H1       0.40662    0.02689    0.38942   1.00
C3d      0.56096    0.05132    0.38879   1.00
H1       0.58896    0.03602    0.38348   1.00
C3       0.48201    0.09997    0.40659   1.00
H1       0.45571    0.11707    0.41212   1.00
C3       0.58810    0.10672    0.40310   1.00
H1       0.63401    0.12753    0.40644   1.00
C2       0.54937    0.12973    0.41178   1.00
C2       0.44554    0.59816    0.34601   1.00
C3       0.43747    0.59694    0.36599   1.00
H1       0.41380    0.61694    0.37145   1.00
C3       0.48165    0.57020    0.33836   1.00
H1       0.48877    0.57140    0.32444   1.00
C3a      0.46291    0.56739    0.37891   1.00
H1       0.45744    0.56669    0.39290   1.00
C3b      0.50833    0.54016    0.35075   1.00
H1       0.53394    0.52204    0.34546   1.00
C6       0.50020    0.53957    0.37135   1.00
C6       0.52953    0.50840    0.38479   1.00
C3c      0.59337    0.54810    0.39333   1.00
H1       0.62028    0.59338    0.38942   1.00
C3d      0.49037    0.43904    0.38879   1.00
H1       0.44707    0.41104    0.38348   1.00
C3       0.61797    0.51799    0.40659   1.00
H1       0.66137    0.54429    0.41212   1.00
C3       0.51863    0.41190    0.40310   1.00
H1       0.49353    0.36599    0.40644   1.00
C2       0.58037    0.45063    0.41178   1.00
C2       0.11220    0.18071    0.17935   1.00
C3       0.10413    0.17386    0.19933   1.00
H1       0.08046    0.13019    0.20479   1.00
C3       0.14831    0.24478    0.17170   1.00
H1       0.15543    0.25070    0.15778   1.00
C3a      0.12957    0.22885    0.21225   1.00
H1       0.12410    0.22407    0.22624   1.00
C3b      0.17499    0.30150    0.18409   1.00
H1       0.20060    0.34523    0.17880   1.00
C6       0.16686    0.29396    0.20469   1.00
C6       0.19619    0.35446    0.21813   1.00
C3c      0.26003    0.37860    0.22667   1.00
H1       0.28694    0.36023    0.22276   1.00
C3d      0.15703    0.38466    0.22213   1.00
H1       0.11373    0.36936    0.21682   1.00
C3       0.28463    0.43331    0.23993   1.00
H1       0.32803    0.45041    0.24546   1.00
C3       0.18529    0.44006    0.23644   1.00
H1       0.16019    0.46087    0.23978   1.00
C2       0.24703    0.46307    0.24512   1.00
C2       0.81929    0.93150    0.17935   1.00
C3       0.82614    0.93028    0.19933   1.00
H1       0.86981    0.95028    0.20479   1.00
C3       0.75522    0.90354    0.17170   1.00
H1       0.74930    0.90474    0.15778   1.00
C3a      0.77115    0.90073    0.21225   1.00
H1       0.77593    0.90003    0.22624   1.00
C3b      0.69850    0.87350    0.18409   1.00
H1       0.65477    0.85538    0.17880   1.00
C6       0.70604    0.87291    0.20469   1.00
C6       0.64554    0.84174    0.21813   1.00
C3c      0.62140    0.88144    0.22667   1.00
H1       0.63977    0.92672    0.22276   1.00
C3d      0.61534    0.77238    0.22213   1.00
H1       0.63064    0.74438    0.21682   1.00
C3       0.56669    0.85133    0.23993   1.00
H1       0.54959    0.87763    0.24546   1.00
C3       0.55994    0.74524    0.23644   1.00
H1       0.53913    0.69933    0.23978   1.00
C2       0.53693    0.78397    0.24512   1.00
C2       0.06850    0.88780    0.17935   1.00
C3       0.06972    0.89587    0.19933   1.00
H1       0.04972    0.91954    0.20479   1.00
C3       0.09646    0.85169    0.17170   1.00
H1       0.09526    0.84457    0.15778   1.00
C3a      0.09927    0.87043    0.21225   1.00
H1       0.09997    0.87590    0.22624   1.00
C3b      0.12650    0.82501    0.18409   1.00
H1       0.14462    0.79940    0.17880   1.00
C6       0.12709    0.83314    0.20469   1.00
C6       0.15826    0.80381    0.21813   1.00
C3c      0.11856    0.73997    0.22667   1.00
H1       0.07328    0.71306    0.22276   1.00
C3d      0.22762    0.84297    0.22213   1.00
H1       0.25562    0.88627    0.21682   1.00
C3       0.14867    0.71537    0.23993   1.00
H1       0.12237    0.67197    0.24546   1.00
C3       0.25476    0.81471    0.23644   1.00
H1       0.30067    0.83981    0.23978   1.00
C2       0.21603    0.75297    0.24512   1.00
C2       0.84737    0.44554    0.65399   1.00
C3       0.84052    0.43747    0.63401   1.00
H1       0.79685    0.41380    0.62855   1.00
C3       0.91144    0.48165    0.66164   1.00
H1       0.91736    0.48877    0.67556   1.00
C3a      0.89551    0.46291    0.62109   1.00
H1       0.89073    0.45744    0.60710   1.00
C3b      0.96816    0.50833    0.64925   1.00
H1       1.01189    0.53394    0.65454   1.00
C6       0.96062    0.50020    0.62865   1.00
C6       0.02112    0.52953    0.61521   1.00
C3c      0.04526    0.59337    0.60667   1.00
H1       0.02689    0.62028    0.61058   1.00
C3d      0.05132    0.49037    0.61121   1.00
H1       0.03602    0.44707    0.61652   1.00
C3       0.09997    0.61797    0.59341   1.00
H1       0.11707    0.66137    0.58788   1.00
C3       0.10672    0.51863    0.59690   1.00
H1       0.12753    0.49353    0.59356   1.00
C2       0.12973    0.58037    0.58822   1.00
C2       0.59816    0.15263    0.65399   1.00
C3       0.59694    0.15948    0.63401   1.00
H1       0.61694    0.20315    0.62855   1.00
C3       0.57020    0.08856    0.66164   1.00
H1       0.57140    0.08264    0.67556   1.00
C3a      0.56739    0.10449    0.62109   1.00
H1       0.56669    0.10927    0.60710   1.00
C3b      0.54016    0.03184    0.64925   1.00
H1       0.52204    -0.01189   0.65454   1.00
C6       0.53957    0.03938    0.62865   1.00
C6       0.50840    0.97888    0.61521   1.00
C3c      0.54810    0.95474    0.60667   1.00
H1       0.59338    0.97311    0.61058   1.00
C3d      0.43904    0.94868    0.61121   1.00
H1       0.41104    0.96398    0.61652   1.00
C3       0.51799    0.90003    0.59341   1.00
H1       0.54429    0.88293    0.58788   1.00
C3       0.41190    0.89328    0.59690   1.00
H1       0.36599    0.87247    0.59356   1.00
C2       0.45063    0.87027    0.58822   1.00
C2       0.55446    0.40184    0.65399   1.00
C3       0.56253    0.40306    0.63401   1.00
H1       0.58620    0.38306    0.62855   1.00
C3       0.51835    0.42980    0.66164   1.00
H1       0.51123    0.42860    0.67556   1.00
C3a      0.53709    0.43261    0.62109   1.00
H1       0.54256    0.43331    0.60710   1.00
C3b      0.49167    0.45984    0.64925   1.00
H1       0.46606    0.47796    0.65454   1.00
C6       0.49980    0.46043    0.62865   1.00
C6       0.47047    0.49160    0.61521   1.00
C3c      0.40663    0.45190    0.60667   1.00
H1       0.37972    0.40662    0.61058   1.00
C3d      0.50963    0.56096    0.61121   1.00
H1       0.55293    0.58896    0.61652   1.00
C3       0.38203    0.48201    0.59341   1.00
H1       0.33863    0.45571    0.58788   1.00
C3       0.48137    0.58810    0.59690   1.00
H1       0.50647    0.63401    0.59356   1.00
C2       0.41963    0.54937    0.58822   1.00
C2       0.55446    0.15263    0.15399   1.00
C3       0.56253    0.15948    0.13401   1.00
H1       0.58620    0.20315    0.12855   1.00
C3       0.51835    0.08856    0.16164   1.00
H1       0.51123    0.08264    0.17556   1.00
C3a      0.53709    0.10449    0.12109   1.00
H1       0.54256    0.10927    0.10710   1.00
C3b      0.49167    0.03184    0.14925   1.00
H1       0.46606    -0.01189   0.15454   1.00
C6       0.49980    0.03938    0.12865   1.00
C6       0.47047    0.97888    0.11521   1.00
C3c      0.40663    0.95474    0.10667   1.00
H1       0.37972    0.97311    0.11058   1.00
C3d      0.50963    0.94868    0.11121   1.00
H1       0.55293    0.96398    0.11652   1.00
C3       0.38203    0.90003    0.09341   1.00
H1       0.33863    0.88293    0.08788   1.00
C3       0.48137    0.89328    0.09690   1.00
H1       0.50647    0.87247    0.09356   1.00
C2       0.41963    0.87027    0.08822   1.00
C2       0.84737    0.40184    0.15399   1.00
C3       0.84052    0.40306    0.13401   1.00
H1       0.79685    0.38306    0.12855   1.00
C3       0.91144    0.42980    0.16164   1.00
H1       0.91736    0.42860    0.17556   1.00
C3a      0.89551    0.43261    0.12109   1.00
H1       0.89073    0.43331    0.10710   1.00
C3b      0.96816    0.45984    0.14925   1.00
H1       1.01189    0.47796    0.15454   1.00
C6       0.96062    0.46043    0.12865   1.00
C6       0.02112    0.49160    0.11521   1.00
C3c      0.04526    0.45190    0.10667   1.00
H1       0.02689    0.40662    0.11058   1.00
C3d      0.05132    0.56096    0.11121   1.00
H1       0.03602    0.58896    0.11652   1.00
C3       0.09997    0.48201    0.09341   1.00
H1       0.11707    0.45571    0.08788   1.00
C3       0.10672    0.58810    0.09690   1.00
H1       0.12753    0.63401    0.09356   1.00
C2       0.12973    0.54937    0.08822   1.00
C2       0.59816    0.44554    0.15399   1.00
C3       0.59694    0.43747    0.13401   1.00
H1       0.61694    0.41380    0.12855   1.00
C3       0.57020    0.48165    0.16164   1.00
H1       0.57140    0.48877    0.17556   1.00
C3a      0.56739    0.46291    0.12109   1.00
H1       0.56669    0.45744    0.10710   1.00
C3b      0.54016    0.50833    0.14925   1.00
H1       0.52204    0.53394    0.15454   1.00
C6       0.53957    0.50020    0.12865   1.00
C6       0.50840    0.52953    0.11521   1.00
C3c      0.54810    0.59337    0.10667   1.00
H1       0.59338    0.62028    0.11058   1.00
C3d      0.43904    0.49037    0.11121   1.00
H1       0.41104    0.44707    0.11652   1.00
C3       0.51799    0.61797    0.09341   1.00
H1       0.54429    0.66137    0.08788   1.00
C3       0.41190    0.51863    0.09690   1.00
H1       0.36599    0.49353    0.09356   1.00
C2       0.45063    0.58037    0.08822   1.00
C2       0.81929    0.88780    0.67935   1.00
C3       0.82614    0.89587    0.69933   1.00
H1       0.86981    0.91954    0.70479   1.00
C3       0.75522    0.85169    0.67170   1.00
H1       0.74930    0.84457    0.65778   1.00
C3a      0.77115    0.87043    0.71225   1.00
H1       0.77593    0.87590    0.72624   1.00
C3b      0.69850    0.82501    0.68409   1.00
H1       0.65477    0.79940    0.67880   1.00
C6       0.70604    0.83314    0.70469   1.00
C6       0.64554    0.80381    0.71813   1.00
C3c      0.62140    0.73997    0.72667   1.00
H1       0.63977    0.71306    0.72276   1.00
C3d      0.61534    0.84297    0.72213   1.00
H1       0.63064    0.88627    0.71682   1.00
C3       0.56669    0.71537    0.73993   1.00
H1       0.54959    0.67197    0.74546   1.00
C3       0.55994    0.81471    0.73644   1.00
H1       0.53913    0.83981    0.73978   1.00
C2       0.53693    0.75297    0.74512   1.00
C2       0.06850    0.18071    0.67935   1.00
C3       0.06972    0.17386    0.69933   1.00
H1       0.04972    0.13019    0.70479   1.00
C3       0.09646    0.24478    0.67170   1.00
H1       0.09526    0.25070    0.65778   1.00
C3a      0.09927    0.22885    0.71225   1.00
H1       0.09997    0.22407    0.72624   1.00
C3b      0.12650    0.30150    0.68409   1.00
H1       0.14462    0.34523    0.67880   1.00
C6       0.12709    0.29396    0.70469   1.00
C6       0.15826    0.35446    0.71813   1.00
C3c      0.11856    0.37860    0.72667   1.00
H1       0.07328    0.36023    0.72276   1.00
C3d      0.22762    0.38466    0.72213   1.00
H1       0.25562    0.36936    0.71682   1.00
C3       0.14867    0.43331    0.73993   1.00
H1       0.12237    0.45041    0.74546   1.00
C3       0.25476    0.44006    0.73644   1.00
H1       0.30067    0.46087    0.73978   1.00
C2       0.21603    0.46307    0.74512   1.00
C2       0.11220    0.93150    0.67935   1.00
C3       0.10413    0.93028    0.69933   1.00
H1       0.08046    0.95028    0.70479   1.00
C3       0.14831    0.90354    0.67170   1.00
H1       0.15543    0.90474    0.65778   1.00
C3a      0.12957    0.90073    0.71225   1.00
H1       0.12410    0.90003    0.72624   1.00
C3b      0.17499    0.87350    0.68409   1.00
H1       0.20060    0.85538    0.67880   1.00
C6       0.16686    0.87291    0.70469   1.00
C6       0.19619    0.84174    0.71813   1.00
C3c      0.26003    0.88144    0.72667   1.00
H1       0.28694    0.92672    0.72276   1.00
C3d      0.15703    0.77238    0.72213   1.00
H1       0.11373    0.74438    0.71682   1.00
C3       0.28463    0.85133    0.73993   1.00
H1       0.32803    0.87763    0.74546   1.00
C3       0.18529    0.74524    0.73644   1.00
H1       0.16019    0.69933    0.73978   1.00
C2       0.24703    0.78397    0.74512   1.00
