data_IRMOF10_interpen_symm_ligand1lp_symm_m

_audit_creation_method             'generated by an auxiliary program of Tobunporous'

_symmetry_space_group_name_H-M     'P 1'
_symmetry_Int_Tables_number        1
_symmetry_cell_setting             triclinic

_cell_length_a                    22.6523
_cell_length_b                    22.6523
_cell_length_c                    65.9502
_cell_angle_alpha                 90.0000
_cell_angle_beta                  90.0000
_cell_angle_gamma                 120.0000

loop_
_atom_site_label
_atom_site_fract_x
_atom_site_fract_y
_atom_site_fract_z
_atom_site_occupancy
O1       0.00000    -0.00000   0.62500   1.00
Zn      0.00000    -0.00000   0.59589   1.00
Zn      0.94848    1.04288    0.63392   1.00
Zn      0.09439    0.05152    0.63392   1.00
Zn      -0.04288   0.90561    0.63392   1.00
O2       0.93860    0.02610    0.58587   1.00
O2       0.08750    0.06140    0.58587   1.00
O2       -0.02610   0.91250    0.58587   1.00
O2       0.91305    0.07161    0.61181   1.00
O2       0.00462    0.12022    0.65110   1.00
O2       0.87413    0.98074    0.65071   1.00
O2       0.15856    0.08695    0.61181   1.00
O2       0.10660    0.12587    0.65071   1.00
O2       0.11559    0.99538    0.65110   1.00
O2       -0.07161   0.84144    0.61181   1.00
O2       0.87978    0.88441    0.65110   1.00
O2       0.01926    0.89340    0.65071   1.00
C1       0.91390    0.06020    0.59358   1.00
C1       0.14630    0.08610    0.59358   1.00
C1       -0.06020   0.85370    0.59358   1.00
C1       0.06663    0.14397    0.65673   1.00
C1       0.85603    0.92267    0.65673   1.00
C1       0.07733    0.93337    0.65673   1.00
O1       -0.00000   0.00000    0.87500   1.00
Zn      -0.00000   0.00000    0.90411   1.00
Zn      1.04288    0.94848    0.86608   1.00
Zn      0.05152    0.09439    0.86608   1.00
Zn      0.90561    -0.04288   0.86608   1.00
O2       0.02610    0.93860    0.91413   1.00
O2       0.06140    0.08750    0.91413   1.00
O2       0.91250    -0.02610   0.91413   1.00
O2       0.07161    0.91305    0.88819   1.00
O2       0.12022    0.00462    0.84890   1.00
O2       0.98074    0.87413    0.84929   1.00
O2       0.08695    0.15856    0.88819   1.00
O2       0.12587    0.10660    0.84929   1.00
O2       0.99538    0.11559    0.84890   1.00
O2       0.84144    -0.07161   0.88819   1.00
O2       0.88441    0.87978    0.84890   1.00
O2       0.89340    0.01926    0.84929   1.00
C1       0.06020    0.91390    0.90642   1.00
C1       0.08610    0.14630    0.90642   1.00
C1       0.85370    -0.06020   0.90642   1.00
C1       0.14397    0.06663    0.84327   1.00
C1       0.92267    0.85603    0.84327   1.00
C1       0.93337    0.07733    0.84327   1.00
O1       0.00000    0.00000    0.37500   1.00
Zn      0.00000    0.00000    0.40411   1.00
Zn      0.05152    -0.04288   0.36608   1.00
Zn      0.90561    0.94848    0.36608   1.00
Zn      1.04288    0.09439    0.36608   1.00
O2       0.06140    -0.02610   0.41413   1.00
O2       0.91250    0.93860    0.41413   1.00
O2       0.02610    0.08750    0.41413   1.00
O2       0.08695    -0.07161   0.38819   1.00
O2       0.99538    0.87978    0.34890   1.00
O2       0.12587    0.01926    0.34929   1.00
O2       0.84144    0.91305    0.38819   1.00
O2       0.89340    0.87413    0.34929   1.00
O2       0.88441    0.00462    0.34890   1.00
O2       0.07161    0.15856    0.38819   1.00
O2       0.12022    0.11559    0.34890   1.00
O2       0.98074    0.10660    0.34929   1.00
C1       0.08610    -0.06020   0.40642   1.00
C1       0.85370    0.91390    0.40642   1.00
C1       0.06020    0.14630    0.40642   1.00
C1       0.93337    0.85603    0.34327   1.00
C1       0.14397    0.07733    0.34327   1.00
C1       0.92267    0.06663    0.34327   1.00
O1       0.00000    0.00000    0.12500   1.00
Zn      0.00000    0.00000    0.09589   1.00
Zn      -0.04288   0.05152    0.13392   1.00
Zn      0.94848    0.90561    0.13392   1.00
Zn      0.09439    1.04288    0.13392   1.00
O2       -0.02610   0.06140    0.08587   1.00
O2       0.93860    0.91250    0.08587   1.00
O2       0.08750    0.02610    0.08587   1.00
O2       -0.07161   0.08695    0.11181   1.00
O2       0.87978    0.99538    0.15110   1.00
O2       0.01926    0.12587    0.15071   1.00
O2       0.91305    0.84144    0.11181   1.00
O2       0.87413    0.89340    0.15071   1.00
O2       0.00462    0.88441    0.15110   1.00
O2       0.15856    0.07161    0.11181   1.00
O2       0.11559    0.12022    0.15110   1.00
O2       0.10660    0.98074    0.15071   1.00
C1       -0.06020   0.08610    0.09358   1.00
C1       0.91390    0.85370    0.09358   1.00
C1       0.14630    0.06020    0.09358   1.00
C1       0.85603    0.93337    0.15673   1.00
C1       0.07733    0.14397    0.15673   1.00
C1       0.06663    0.92267    0.15673   1.00
O1       0.66667    0.33333    0.95833   1.00
Zn      0.66667    0.33333    0.92922   1.00
Zn      0.61515    0.37621    0.96725   1.00
Zn      0.76106    0.38485    0.96725   1.00
Zn      -0.37621   0.23894    0.96725   1.00
O2       0.60527    0.35943    0.91920   1.00
O2       0.75417    0.39473    0.91920   1.00
O2       0.64057    0.24583    0.91920   1.00
O2       0.57972    0.40494    0.94514   1.00
O2       0.67129    0.45355    0.98443   1.00
O2       0.54080    0.31407    0.98404   1.00
O2       0.82523    0.42028    0.94514   1.00
O2       0.77327    0.45920    0.98404   1.00
O2       -0.21774   0.32871    0.98443   1.00
O2       0.59506    0.17477    0.94514   1.00
O2       0.54645    0.21774    0.98443   1.00
O2       -0.31407   0.22673    0.98404   1.00
C1       0.58057    0.39353    0.92691   1.00
C1       0.81297    0.41943    0.92691   1.00
C1       0.60647    0.18703    0.92691   1.00
C1       0.73330    0.47730    0.99006   1.00
C1       0.52270    0.25600    0.99006   1.00
C1       -0.25600   0.26670    0.99006   1.00
O1       0.66667    0.33333    0.20833   1.00
Zn      0.66667    0.33333    0.23744   1.00
Zn      0.70954    0.28182    0.19942   1.00
Zn      0.71818    0.42773    0.19942   1.00
Zn      0.57227    0.29046    0.19942   1.00
O2       0.69277    0.27193    0.24746   1.00
O2       0.72807    0.42083    0.24746   1.00
O2       0.57917    0.30723    0.24746   1.00
O2       0.73828    0.24638    0.22152   1.00
O2       0.78688    0.33796    0.18224   1.00
O2       0.64740    0.20747    0.18263   1.00
O2       0.75362    0.49189    0.22152   1.00
O2       0.79253    0.43994    0.18263   1.00
O2       0.66204    0.44893    0.18224   1.00
O2       0.50811    0.26172    0.22152   1.00
O2       0.55107    0.21312    0.18224   1.00
O2       0.56006    0.35260    0.18263   1.00
C1       0.72687    0.24723    0.23975   1.00
C1       0.75277    0.47963    0.23975   1.00
C1       0.52037    0.27313    0.23975   1.00
C1       0.81063    0.39997    0.17661   1.00
C1       0.58933    0.18937    0.17661   1.00
C1       0.60003    0.41067    0.17661   1.00
O1       0.66667    0.33333    0.70833   1.00
Zn      0.66667    0.33333    0.73744   1.00
Zn      0.71818    0.29046    0.69942   1.00
Zn      0.57227    0.28182    0.69942   1.00
Zn      0.70954    0.42773    0.69942   1.00
O2       0.72807    0.30723    0.74746   1.00
O2       0.57917    0.27193    0.74746   1.00
O2       0.69277    0.42083    0.74746   1.00
O2       0.75362    0.26172    0.72152   1.00
O2       0.66204    0.21312    0.68224   1.00
O2       0.79253    0.35260    0.68263   1.00
O2       0.50811    0.24638    0.72152   1.00
O2       0.56006    0.20747    0.68263   1.00
O2       0.55107    0.33796    0.68224   1.00
O2       0.73828    0.49189    0.72152   1.00
O2       0.78688    0.44893    0.68224   1.00
O2       0.64740    0.43994    0.68263   1.00
C1       0.75277    0.27313    0.73975   1.00
C1       0.52037    0.24723    0.73975   1.00
C1       0.72687    0.47963    0.73975   1.00
C1       0.60003    0.18937    0.67661   1.00
C1       0.81063    0.41067    0.67661   1.00
C1       0.58933    0.39997    0.67661   1.00
O1       0.66667    0.33333    0.45833   1.00
Zn      0.66667    0.33333    0.42922   1.00
Zn      -0.37621   0.38485    0.46725   1.00
Zn      0.61515    0.23894    0.46725   1.00
Zn      0.76106    0.37621    0.46725   1.00
O2       0.64057    0.39473    0.41920   1.00
O2       0.60527    0.24583    0.41920   1.00
O2       0.75417    0.35943    0.41920   1.00
O2       0.59506    0.42028    0.44514   1.00
O2       0.54645    0.32871    0.48443   1.00
O2       -0.31407   0.45920    0.48404   1.00
O2       0.57972    0.17477    0.44514   1.00
O2       0.54080    0.22673    0.48404   1.00
O2       0.67129    0.21774    0.48443   1.00
O2       0.82523    0.40494    0.44514   1.00
O2       -0.21774   0.45355    0.48443   1.00
O2       0.77327    0.31407    0.48404   1.00
C1       0.60647    0.41943    0.42691   1.00
C1       0.58057    0.18703    0.42691   1.00
C1       0.81297    0.39353    0.42691   1.00
C1       0.52270    0.26670    0.49006   1.00
C1       -0.25600   0.47730    0.49006   1.00
C1       0.73330    0.25600    0.49006   1.00
O1       0.33333    0.66667    0.29167   1.00
Zn      0.33333    0.66667    0.26256   1.00
Zn      0.28182    0.70954    0.30058   1.00
Zn      0.42773    0.71818    0.30058   1.00
Zn      0.29046    0.57227    0.30058   1.00
O2       0.27193    0.69277    0.25254   1.00
O2       0.42083    0.72807    0.25254   1.00
O2       0.30723    0.57917    0.25254   1.00
O2       0.24638    0.73828    0.27848   1.00
O2       0.33796    0.78688    0.31776   1.00
O2       0.20747    0.64740    0.31737   1.00
O2       0.49189    0.75362    0.27848   1.00
O2       0.43994    0.79253    0.31737   1.00
O2       0.44893    0.66204    0.31776   1.00
O2       0.26172    0.50811    0.27848   1.00
O2       0.21312    0.55107    0.31776   1.00
O2       0.35260    0.56006    0.31737   1.00
C1       0.24723    0.72687    0.26025   1.00
C1       0.47963    0.75277    0.26025   1.00
C1       0.27313    0.52037    0.26025   1.00
C1       0.39997    0.81063    0.32339   1.00
C1       0.18937    0.58933    0.32339   1.00
C1       0.41067    0.60003    0.32339   1.00
O1       0.33333    0.66667    0.54167   1.00
Zn      0.33333    0.66667    0.57078   1.00
Zn      0.37621    0.61515    0.53275   1.00
Zn      0.38485    0.76106    0.53275   1.00
Zn      0.23894    -0.37621   0.53275   1.00
O2       0.35943    0.60527    0.58080   1.00
O2       0.39473    0.75417    0.58080   1.00
O2       0.24583    0.64057    0.58080   1.00
O2       0.40494    0.57972    0.55486   1.00
O2       0.45355    0.67129    0.51557   1.00
O2       0.31407    0.54080    0.51596   1.00
O2       0.42028    0.82523    0.55486   1.00
O2       0.45920    0.77327    0.51596   1.00
O2       0.32871    -0.21774   0.51557   1.00
O2       0.17477    0.59506    0.55486   1.00
O2       0.21774    0.54645    0.51557   1.00
O2       0.22673    -0.31407   0.51596   1.00
C1       0.39353    0.58057    0.57309   1.00
C1       0.41943    0.81297    0.57309   1.00
C1       0.18703    0.60647    0.57309   1.00
C1       0.47730    0.73330    0.50994   1.00
C1       0.25600    0.52270    0.50994   1.00
C1       0.26670    -0.25600   0.50994   1.00
O1       0.33333    0.66667    0.04167   1.00
Zn      0.33333    0.66667    0.07078   1.00
Zn      0.38485    -0.37621   0.03275   1.00
Zn      0.23894    0.61515    0.03275   1.00
Zn      0.37621    0.76106    0.03275   1.00
O2       0.39473    0.64057    0.08080   1.00
O2       0.24583    0.60527    0.08080   1.00
O2       0.35943    0.75417    0.08080   1.00
O2       0.42028    0.59506    0.05486   1.00
O2       0.32871    0.54645    0.01557   1.00
O2       0.45920    -0.31407   0.01596   1.00
O2       0.17477    0.57972    0.05486   1.00
O2       0.22673    0.54080    0.01596   1.00
O2       0.21774    0.67129    0.01557   1.00
O2       0.40494    0.82523    0.05486   1.00
O2       0.45355    -0.21774   0.01557   1.00
O2       0.31407    0.77327    0.01596   1.00
C1       0.41943    0.60647    0.07309   1.00
C1       0.18703    0.58057    0.07309   1.00
C1       0.39353    0.81297    0.07309   1.00
C1       0.26670    0.52270    0.00994   1.00
C1       0.47730    -0.25600   0.00994   1.00
C1       0.25600    0.73330    0.00994   1.00
O1       0.33333    0.66667    0.79167   1.00
Zn      0.33333    0.66667    0.76256   1.00
Zn      0.29046    0.71818    0.80058   1.00
Zn      0.28182    0.57227    0.80058   1.00
Zn      0.42773    0.70954    0.80058   1.00
O2       0.30723    0.72807    0.75254   1.00
O2       0.27193    0.57917    0.75254   1.00
O2       0.42083    0.69277    0.75254   1.00
O2       0.26172    0.75362    0.77848   1.00
O2       0.21312    0.66204    0.81776   1.00
O2       0.35260    0.79253    0.81737   1.00
O2       0.24638    0.50811    0.77848   1.00
O2       0.20747    0.56006    0.81737   1.00
O2       0.33796    0.55107    0.81776   1.00
O2       0.49189    0.73828    0.77848   1.00
O2       0.44893    0.78688    0.81776   1.00
O2       0.43994    0.64740    0.81737   1.00
C1       0.27313    0.75277    0.76025   1.00
C1       0.24723    0.52037    0.76025   1.00
C1       0.47963    0.72687    0.76025   1.00
C1       0.18937    0.60003    0.82339   1.00
C1       0.41067    0.81063    0.82339   1.00
C1       0.39997    0.58933    0.82339   1.00
C2       -0.19517   0.54372    0.50295   1.00
C3       -0.16012   0.60983    0.49861   1.00
H1       -0.15031   0.62306    0.48511   1.00
C3       -0.21043   0.52546    0.52269   1.00
H1       -0.23579   0.47949    0.52603   1.00
C4       -0.13790   0.65948    0.51332   1.00
C5       -0.09803   0.73516    0.50836   1.00
H2       -0.12925   0.75114    0.50546   1.00
H2       -0.06966   0.74242    0.49676   1.00
H2       -0.07010   0.75975    0.51973   1.00
C4       -0.18938   0.57352    0.53796   1.00
C5       -0.20862   0.55217    0.56046   1.00
H2       -0.17231   0.54933    0.56700   1.00
H2       -0.24963   0.50866    0.56104   1.00
H2       -0.21572   0.58550    0.56724   1.00
C6       -0.15368   0.64157    0.53335   1.00
C6       -0.13180   0.69351    0.54959   1.00
C4       -0.17196   0.72135    0.55478   1.00
C5       -0.24093   0.69336    0.54589   1.00
H2       -0.23826   0.71820    0.53381   1.00
H2       -0.27033   0.69763    0.55546   1.00
H2       -0.25878   0.64603    0.54263   1.00
C4       -0.06956   0.71398    0.55897   1.00
C5       -0.02261   0.68577    0.55362   1.00
H2       -0.03512   0.64552    0.56155   1.00
H2       0.02375    0.71948    0.55649   1.00
H2       -0.02730   0.67426    0.53950   1.00
C3       -0.14851   0.77215    0.56938   1.00
H1       -0.17586   0.79027    0.57315   1.00
C3       -0.04793   0.76809    0.57358   1.00
H1       -0.00609   0.78404    0.57994   1.00
C2       -0.08630   0.79640    0.57845   1.00
C2       0.45628    0.26111    0.50295   1.00
C3       0.39017    0.23005    0.49861   1.00
H1       0.37694    0.22663    0.48511   1.00
C3       0.47454    0.26411    0.52269   1.00
H1       0.52051    0.28472    0.52603   1.00
C4       0.34052    0.20262    0.51332   1.00
C5       0.26484    0.16681    0.50836   1.00
H2       0.24886    0.11961    0.50546   1.00
H2       0.25758    0.18792    0.49676   1.00
H2       0.24025    0.17015    0.51973   1.00
C4       0.42648    0.23710    0.53796   1.00
C5       0.44783    0.23921    0.56046   1.00
H2       0.45067    0.27836    0.56700   1.00
H2       0.49134    0.24171    0.56104   1.00
H2       0.41450    0.19878    0.56724   1.00
C6       0.35843    0.20475    0.53335   1.00
C6       0.30649    0.17469    0.54959   1.00
C4       0.27865    0.10669    0.55478   1.00
C5       0.30664    0.06571    0.54589   1.00
H2       0.28180    0.04354    0.53381   1.00
H2       0.30237    0.03204    0.55546   1.00
H2       0.35397    0.09519    0.54263   1.00
C4       0.28602    0.21646    0.55897   1.00
C5       0.31423    0.29162    0.55362   1.00
H2       0.35448    0.31936    0.56155   1.00
H2       0.28052    0.30427    0.55649   1.00
H2       0.32574    0.29844    0.53950   1.00
C3       0.22785    0.07934    0.56938   1.00
H1       0.20973    0.03387    0.57315   1.00
C3       0.23191    0.18398    0.57358   1.00
H1       0.21596    0.20987    0.57994   1.00
C2       0.20360    0.11730    0.57845   1.00
C2       0.73889    0.19517    0.50295   1.00
C3       0.76995    0.16012    0.49861   1.00
H1       0.77337    0.15031    0.48511   1.00
C3       0.73589    0.21043    0.52269   1.00
H1       0.71528    0.23579    0.52603   1.00
C4       0.79738    0.13790    0.51332   1.00
C5       0.83319    0.09803    0.50836   1.00
H2       0.88039    0.12925    0.50546   1.00
H2       0.81208    0.06966    0.49676   1.00
H2       0.82985    0.07010    0.51973   1.00
C4       0.76290    0.18938    0.53796   1.00
C5       0.76079    0.20862    0.56046   1.00
H2       0.72164    0.17231    0.56700   1.00
H2       0.75829    0.24963    0.56104   1.00
H2       0.80122    0.21572    0.56724   1.00
C6       0.79525    0.15368    0.53335   1.00
C6       0.82531    0.13180    0.54959   1.00
C4       0.89331    0.17196    0.55478   1.00
C5       0.93429    0.24093    0.54589   1.00
H2       0.95646    0.23826    0.53381   1.00
H2       0.96796    0.27033    0.55546   1.00
H2       0.90481    0.25878    0.54263   1.00
C4       0.78354    0.06956    0.55897   1.00
C5       0.70838    0.02261    0.55362   1.00
H2       0.68064    0.03512    0.56155   1.00
H2       0.69573    0.97625    0.55649   1.00
H2       0.70156    0.02730    0.53950   1.00
C3       0.92066    0.14851    0.56938   1.00
H1       0.96613    0.17586    0.57315   1.00
C3       0.81602    0.04793    0.57358   1.00
H1       0.79013    0.00609    0.57994   1.00
C2       0.88270    0.08630    0.57845   1.00
C2       0.54372    -0.19517   0.99705   1.00
C3       0.60983    -0.16012   0.00139   1.00
H1       0.62306    -0.15031   0.01489   1.00
C3       0.52546    -0.21043   0.97731   1.00
H1       0.47949    -0.23579   0.97397   1.00
C4       0.65948    -0.13790   0.98668   1.00
C5       0.73516    -0.09803   0.99164   1.00
H2       0.75114    -0.12925   0.99454   1.00
H2       0.74242    -0.06966   0.00324   1.00
H2       0.75975    -0.07010   0.98027   1.00
C4       0.57352    -0.18938   0.96204   1.00
C5       0.55217    -0.20862   0.93954   1.00
H2       0.54933    -0.17231   0.93300   1.00
H2       0.50866    -0.24963   0.93896   1.00
H2       0.58550    -0.21572   0.93276   1.00
C6       0.64157    -0.15368   0.96665   1.00
C6       0.69351    -0.13180   0.95041   1.00
C4       0.72135    -0.17196   0.94522   1.00
C5       0.69336    -0.24093   0.95411   1.00
H2       0.71820    -0.23826   0.96619   1.00
H2       0.69763    -0.27033   0.94454   1.00
H2       0.64603    -0.25878   0.95737   1.00
C4       0.71398    -0.06956   0.94103   1.00
C5       0.68577    -0.02261   0.94638   1.00
H2       0.64552    -0.03512   0.93845   1.00
H2       0.71948    0.02375    0.94351   1.00
H2       0.67426    -0.02730   0.96050   1.00
C3       0.77215    -0.14851   0.93062   1.00
H1       0.79027    -0.17586   0.92685   1.00
C3       0.76809    -0.04793   0.92642   1.00
H1       0.78404    -0.00609   0.92006   1.00
C2       0.79640    -0.08630   0.92155   1.00
C2       0.26111    0.45628    0.99705   1.00
C3       0.23005    0.39017    0.00139   1.00
H1       0.22663    0.37694    0.01489   1.00
C3       0.26411    0.47454    0.97731   1.00
H1       0.28472    0.52051    0.97397   1.00
C4       0.20262    0.34052    0.98668   1.00
C5       0.16681    0.26484    0.99164   1.00
H2       0.11961    0.24886    0.99454   1.00
H2       0.18792    0.25758    0.00324   1.00
H2       0.17015    0.24025    0.98027   1.00
C4       0.23710    0.42648    0.96204   1.00
C5       0.23921    0.44783    0.93954   1.00
H2       0.27836    0.45067    0.93300   1.00
H2       0.24171    0.49134    0.93896   1.00
H2       0.19878    0.41450    0.93276   1.00
C6       0.20475    0.35843    0.96665   1.00
C6       0.17469    0.30649    0.95041   1.00
C4       0.10669    0.27865    0.94522   1.00
C5       0.06571    0.30664    0.95411   1.00
H2       0.04354    0.28180    0.96619   1.00
H2       0.03204    0.30237    0.94454   1.00
H2       0.09519    0.35397    0.95737   1.00
C4       0.21646    0.28602    0.94103   1.00
C5       0.29162    0.31423    0.94638   1.00
H2       0.31936    0.35448    0.93845   1.00
H2       0.30427    0.28052    0.94351   1.00
H2       0.29844    0.32574    0.96050   1.00
C3       0.07934    0.22785    0.93062   1.00
H1       0.03387    0.20973    0.92685   1.00
C3       0.18398    0.23191    0.92642   1.00
H1       0.20987    0.21596    0.92006   1.00
C2       0.11730    0.20360    0.92155   1.00
C2       0.19517    0.73889    0.99705   1.00
C3       0.16012    0.76995    0.00139   1.00
H1       0.15031    0.77337    0.01489   1.00
C3       0.21043    0.73589    0.97731   1.00
H1       0.23579    0.71528    0.97397   1.00
C4       0.13790    0.79738    0.98668   1.00
C5       0.09803    0.83319    0.99164   1.00
H2       0.12925    0.88039    0.99454   1.00
H2       0.06966    0.81208    0.00324   1.00
H2       0.07010    0.82985    0.98027   1.00
C4       0.18938    0.76290    0.96204   1.00
C5       0.20862    0.76079    0.93954   1.00
H2       0.17231    0.72164    0.93300   1.00
H2       0.24963    0.75829    0.93896   1.00
H2       0.21572    0.80122    0.93276   1.00
C6       0.15368    0.79525    0.96665   1.00
C6       0.13180    0.82531    0.95041   1.00
C4       0.17196    0.89331    0.94522   1.00
C5       0.24093    0.93429    0.95411   1.00
H2       0.23826    0.95646    0.96619   1.00
H2       0.27033    0.96796    0.94454   1.00
H2       0.25878    0.90481    0.95737   1.00
C4       0.06956    0.78354    0.94103   1.00
C5       0.02261    0.70838    0.94638   1.00
H2       0.03512    0.68064    0.93845   1.00
H2       0.97625    0.69573    0.94351   1.00
H2       0.02730    0.70156    0.96050   1.00
C3       0.14851    0.92066    0.93062   1.00
H1       0.17586    0.96613    0.92685   1.00
C3       0.04793    0.81602    0.92642   1.00
H1       0.00609    0.79013    0.92006   1.00
C2       0.08630    0.88270    0.92155   1.00
C2       0.19517    0.45628    0.49705   1.00
C3       0.16012    0.39017    0.50139   1.00
H1       0.15031    0.37694    0.51489   1.00
C3       0.21043    0.47454    0.47731   1.00
H1       0.23579    0.52051    0.47397   1.00
C4       0.13790    0.34052    0.48668   1.00
C5       0.09803    0.26484    0.49164   1.00
H2       0.12925    0.24886    0.49454   1.00
H2       0.06966    0.25758    0.50324   1.00
H2       0.07010    0.24025    0.48027   1.00
C4       0.18938    0.42648    0.46204   1.00
C5       0.20862    0.44783    0.43954   1.00
H2       0.17231    0.45067    0.43300   1.00
H2       0.24963    0.49134    0.43896   1.00
H2       0.21572    0.41450    0.43276   1.00
C6       0.15368    0.35843    0.46665   1.00
C6       0.13180    0.30649    0.45041   1.00
C4       0.17196    0.27865    0.44522   1.00
C5       0.24093    0.30664    0.45411   1.00
H2       0.23826    0.28180    0.46619   1.00
H2       0.27033    0.30237    0.44454   1.00
H2       0.25878    0.35397    0.45737   1.00
C4       0.06956    0.28602    0.44103   1.00
C5       0.02261    0.31423    0.44638   1.00
H2       0.03512    0.35448    0.43845   1.00
H2       0.97625    0.28052    0.44351   1.00
H2       0.02730    0.32574    0.46050   1.00
C3       0.14851    0.22785    0.43062   1.00
H1       0.17586    0.20973    0.42685   1.00
C3       0.04793    0.23191    0.42642   1.00
H1       0.00609    0.21596    0.42006   1.00
C2       0.08630    0.20360    0.42155   1.00
C2       0.54372    0.73889    0.49705   1.00
C3       0.60983    0.76995    0.50139   1.00
H1       0.62306    0.77337    0.51489   1.00
C3       0.52546    0.73589    0.47731   1.00
H1       0.47949    0.71528    0.47397   1.00
C4       0.65948    0.79738    0.48668   1.00
C5       0.73516    0.83319    0.49164   1.00
H2       0.75114    0.88039    0.49454   1.00
H2       0.74242    0.81208    0.50324   1.00
H2       0.75975    0.82985    0.48027   1.00
C4       0.57352    0.76290    0.46204   1.00
C5       0.55217    0.76079    0.43954   1.00
H2       0.54933    0.72164    0.43300   1.00
H2       0.50866    0.75829    0.43896   1.00
H2       0.58550    0.80122    0.43276   1.00
C6       0.64157    0.79525    0.46665   1.00
C6       0.69351    0.82531    0.45041   1.00
C4       0.72135    0.89331    0.44522   1.00
C5       0.69336    0.93429    0.45411   1.00
H2       0.71820    0.95646    0.46619   1.00
H2       0.69763    0.96796    0.44454   1.00
H2       0.64603    0.90481    0.45737   1.00
C4       0.71398    0.78354    0.44103   1.00
C5       0.68577    0.70838    0.44638   1.00
H2       0.64552    0.68064    0.43845   1.00
H2       0.71948    0.69573    0.44351   1.00
H2       0.67426    0.70156    0.46050   1.00
C3       0.77215    0.92066    0.43062   1.00
H1       0.79027    0.96613    0.42685   1.00
C3       0.76809    0.81602    0.42642   1.00
H1       0.78404    0.79013    0.42006   1.00
C2       0.79640    0.88270    0.42155   1.00
C2       0.26111    -0.19517   0.49705   1.00
C3       0.23005    -0.16012   0.50139   1.00
H1       0.22663    -0.15031   0.51489   1.00
C3       0.26411    -0.21043   0.47731   1.00
H1       0.28472    -0.23579   0.47397   1.00
C4       0.20262    -0.13790   0.48668   1.00
C5       0.16681    -0.09803   0.49164   1.00
H2       0.11961    -0.12925   0.49454   1.00
H2       0.18792    -0.06966   0.50324   1.00
H2       0.17015    -0.07010   0.48027   1.00
C4       0.23710    -0.18938   0.46204   1.00
C5       0.23921    -0.20862   0.43954   1.00
H2       0.27836    -0.17231   0.43300   1.00
H2       0.24171    -0.24963   0.43896   1.00
H2       0.19878    -0.21572   0.43276   1.00
C6       0.20475    -0.15368   0.46665   1.00
C6       0.17469    -0.13180   0.45041   1.00
C4       0.10669    -0.17196   0.44522   1.00
C5       0.06571    -0.24093   0.45411   1.00
H2       0.04354    -0.23826   0.46619   1.00
H2       0.03204    -0.27033   0.44454   1.00
H2       0.09519    -0.25878   0.45737   1.00
C4       0.21646    -0.06956   0.44103   1.00
C5       0.29162    -0.02261   0.44638   1.00
H2       0.31936    -0.03512   0.43845   1.00
H2       0.30427    0.02375    0.44351   1.00
H2       0.29844    -0.02730   0.46050   1.00
C3       0.07934    -0.14851   0.43062   1.00
H1       0.03387    -0.17586   0.42685   1.00
C3       0.18398    -0.04793   0.42642   1.00
H1       0.20987    -0.00609   0.42006   1.00
C2       0.11730    -0.08630   0.42155   1.00
C2       0.45628    0.19517    0.00295   1.00
C3       0.39017    0.16012    0.99861   1.00
H1       0.37694    0.15031    0.98511   1.00
C3       0.47454    0.21043    0.02269   1.00
H1       0.52051    0.23579    0.02603   1.00
C4       0.34052    0.13790    0.01332   1.00
C5       0.26484    0.09803    0.00836   1.00
H2       0.24886    0.12925    0.00546   1.00
H2       0.25758    0.06966    0.99676   1.00
H2       0.24025    0.07010    0.01973   1.00
C4       0.42648    0.18938    0.03796   1.00
C5       0.44783    0.20862    0.06046   1.00
H2       0.45067    0.17231    0.06700   1.00
H2       0.49134    0.24963    0.06104   1.00
H2       0.41450    0.21572    0.06724   1.00
C6       0.35843    0.15368    0.03335   1.00
C6       0.30649    0.13180    0.04959   1.00
C4       0.27865    0.17196    0.05478   1.00
C5       0.30664    0.24093    0.04589   1.00
H2       0.28180    0.23826    0.03381   1.00
H2       0.30237    0.27033    0.05546   1.00
H2       0.35397    0.25878    0.04263   1.00
C4       0.28602    0.06956    0.05897   1.00
C5       0.31423    0.02261    0.05362   1.00
H2       0.35448    0.03512    0.06155   1.00
H2       0.28052    0.97625    0.05649   1.00
H2       0.32574    0.02730    0.03950   1.00
C3       0.22785    0.14851    0.06938   1.00
H1       0.20973    0.17586    0.07315   1.00
C3       0.23191    0.04793    0.07358   1.00
H1       0.21596    0.00609    0.07994   1.00
C2       0.20360    0.08630    0.07845   1.00
C2       0.73889    0.54372    0.00295   1.00
C3       0.76995    0.60983    0.99861   1.00
H1       0.77337    0.62306    0.98511   1.00
C3       0.73589    0.52546    0.02269   1.00
H1       0.71528    0.47949    0.02603   1.00
C4       0.79738    0.65948    0.01332   1.00
C5       0.83319    0.73516    0.00836   1.00
H2       0.88039    0.75114    0.00546   1.00
H2       0.81208    0.74242    0.99676   1.00
H2       0.82985    0.75975    0.01973   1.00
C4       0.76290    0.57352    0.03796   1.00
C5       0.76079    0.55217    0.06046   1.00
H2       0.72164    0.54933    0.06700   1.00
H2       0.75829    0.50866    0.06104   1.00
H2       0.80122    0.58550    0.06724   1.00
C6       0.79525    0.64157    0.03335   1.00
C6       0.82531    0.69351    0.04959   1.00
C4       0.89331    0.72135    0.05478   1.00
C5       0.93429    0.69336    0.04589   1.00
H2       0.95646    0.71820    0.03381   1.00
H2       0.96796    0.69763    0.05546   1.00
H2       0.90481    0.64603    0.04263   1.00
C4       0.78354    0.71398    0.05897   1.00
C5       0.70838    0.68577    0.05362   1.00
H2       0.68064    0.64552    0.06155   1.00
H2       0.69573    0.71948    0.05649   1.00
H2       0.70156    0.67426    0.03950   1.00
C3       0.92066    0.77215    0.06938   1.00
H1       0.96613    0.79027    0.07315   1.00
C3       0.81602    0.76809    0.07358   1.00
H1       0.79013    0.78404    0.07994   1.00
C2       0.88270    0.79640    0.07845   1.00
C2       -0.19517   0.26111    0.00295   1.00
C3       -0.16012   0.23005    0.99861   1.00
H1       -0.15031   0.22663    0.98511   1.00
C3       -0.21043   0.26411    0.02269   1.00
H1       -0.23579   0.28472    0.02603   1.00
C4       -0.13790   0.20262    0.01332   1.00
C5       -0.09803   0.16681    0.00836   1.00
H2       -0.12925   0.11961    0.00546   1.00
H2       -0.06966   0.18792    0.99676   1.00
H2       -0.07010   0.17015    0.01973   1.00
C4       -0.18938   0.23710    0.03796   1.00
C5       -0.20862   0.23921    0.06046   1.00
H2       -0.17231   0.27836    0.06700   1.00
H2       -0.24963   0.24171    0.06104   1.00
H2       -0.21572   0.19878    0.06724   1.00
C6       -0.15368   0.20475    0.03335   1.00
C6       -0.13180   0.17469    0.04959   1.00
C4       -0.17196   0.10669    0.05478   1.00
C5       -0.24093   0.06571    0.04589   1.00
H2       -0.23826   0.04354    0.03381   1.00
H2       -0.27033   0.03204    0.05546   1.00
H2       -0.25878   0.09519    0.04263   1.00
C4       -0.06956   0.21646    0.05897   1.00
C5       -0.02261   0.29162    0.05362   1.00
H2       -0.03512   0.31936    0.06155   1.00
H2       0.02375    0.30427    0.05649   1.00
H2       -0.02730   0.29844    0.03950   1.00
C3       -0.14851   0.07934    0.06938   1.00
H1       -0.17586   0.03387    0.07315   1.00
C3       -0.04793   0.18398    0.07358   1.00
H1       -0.00609   0.20987    0.07994   1.00
C2       -0.08630   0.11730    0.07845   1.00
C2       0.47150    0.87705    0.83628   1.00
C3       0.50655    0.94316    0.83194   1.00
H1       0.51636    0.95639    0.81844   1.00
C3       0.45624    0.85879    0.85602   1.00
H1       0.43088    0.81282    0.85936   1.00
C4       0.52877    0.99281    0.84665   1.00
C5       0.56864    0.06849    0.84169   1.00
H2       0.53742    0.08447    0.83879   1.00
H2       0.59701    0.07575    0.83009   1.00
H2       0.59657    0.09308    0.85306   1.00
C4       0.47729    0.90685    0.87129   1.00
C5       0.45805    0.88550    0.89379   1.00
H2       0.49436    0.88266    0.90033   1.00
H2       0.41704    0.84199    0.89437   1.00
H2       0.45095    0.91883    0.90057   1.00
C6       0.51299    0.97490    0.86668   1.00
C6       0.53487    0.02684    0.88292   1.00
C4       0.49471    0.05468    0.88811   1.00
C5       0.42574    0.02669    0.87922   1.00
H2       0.42841    0.05153    0.86714   1.00
H2       0.39634    0.03096    0.88879   1.00
H2       0.40789    0.97936    0.87596   1.00
C4       0.59711    0.04731    0.89230   1.00
C5       0.64406    0.01910    0.88695   1.00
H2       0.63155    0.97885    0.89488   1.00
H2       0.69042    0.05281    0.88982   1.00
H2       0.63937    0.00759    0.87283   1.00
C3       0.51816    0.10548    0.90271   1.00
H1       0.49081    0.12360    0.90648   1.00
C3       0.61874    0.10142    0.90691   1.00
H1       0.66058    0.11737    0.91327   1.00
C2       0.58037    0.12973    0.91178   1.00
C2       0.12295    0.59444    0.83628   1.00
C3       0.05684    0.56338    0.83194   1.00
H1       0.04361    0.55996    0.81844   1.00
C3       0.14121    0.59744    0.85602   1.00
H1       0.18718    0.61805    0.85936   1.00
C4       0.00719    0.53595    0.84665   1.00
C5       0.93151    0.50014    0.84169   1.00
H2       0.91553    0.45294    0.83879   1.00
H2       0.92425    0.52125    0.83009   1.00
H2       0.90692    0.50348    0.85306   1.00
C4       0.09315    0.57043    0.87129   1.00
C5       0.11450    0.57254    0.89379   1.00
H2       0.11734    0.61169    0.90033   1.00
H2       0.15801    0.57504    0.89437   1.00
H2       0.08117    0.53211    0.90057   1.00
C6       0.02510    0.53808    0.86668   1.00
C6       0.97316    0.50802    0.88292   1.00
C4       0.94532    0.44002    0.88811   1.00
C5       0.97331    0.39904    0.87922   1.00
H2       0.94847    0.37687    0.86714   1.00
H2       0.96904    0.36537    0.88879   1.00
H2       0.02064    0.42852    0.87596   1.00
C4       0.95269    0.54979    0.89230   1.00
C5       0.98090    0.62495    0.88695   1.00
H2       0.02115    0.65269    0.89488   1.00
H2       0.94719    0.63760    0.88982   1.00
H2       0.99241    0.63177    0.87283   1.00
C3       0.89452    0.41267    0.90271   1.00
H1       0.87640    0.36720    0.90648   1.00
C3       0.89858    0.51731    0.90691   1.00
H1       0.88263    0.54320    0.91327   1.00
C2       0.87027    0.45063    0.91178   1.00
C2       0.40556    0.52850    0.83628   1.00
C3       0.43662    0.49345    0.83194   1.00
H1       0.44004    0.48364    0.81844   1.00
C3       0.40256    0.54376    0.85602   1.00
H1       0.38195    0.56912    0.85936   1.00
C4       0.46405    0.47123    0.84665   1.00
C5       0.49986    0.43136    0.84169   1.00
H2       0.54706    0.46258    0.83879   1.00
H2       0.47875    0.40299    0.83009   1.00
H2       0.49652    0.40343    0.85306   1.00
C4       0.42957    0.52271    0.87129   1.00
C5       0.42746    0.54195    0.89379   1.00
H2       0.38831    0.50564    0.90033   1.00
H2       0.42496    0.58296    0.89437   1.00
H2       0.46789    0.54905    0.90057   1.00
C6       0.46192    0.48701    0.86668   1.00
C6       0.49198    0.46513    0.88292   1.00
C4       0.55998    0.50529    0.88811   1.00
C5       0.60096    0.57426    0.87922   1.00
H2       0.62313    0.57159    0.86714   1.00
H2       0.63463    0.60366    0.88879   1.00
H2       0.57148    0.59211    0.87596   1.00
C4       0.45021    0.40289    0.89230   1.00
C5       0.37505    0.35594    0.88695   1.00
H2       0.34731    0.36845    0.89488   1.00
H2       0.36240    0.30958    0.88982   1.00
H2       0.36823    0.36063    0.87283   1.00
C3       0.58733    0.48184    0.90271   1.00
H1       0.63280    0.50919    0.90648   1.00
C3       0.48269    0.38126    0.90691   1.00
H1       0.45680    0.33942    0.91327   1.00
C2       0.54937    0.41963    0.91178   1.00
C2       0.21039    0.13816    0.33038   1.00
C3       0.27650    0.17321    0.33472   1.00
H1       0.28973    0.18302    0.34822   1.00
C3       0.19213    0.12290    0.31064   1.00
H1       0.14616    0.09754    0.30730   1.00
C4       0.32615    0.19543    0.32001   1.00
C5       0.40183    0.23530    0.32497   1.00
H2       0.41781    0.20408    0.32787   1.00
H2       0.40909    0.26367    0.33657   1.00
H2       0.42642    0.26323    0.31360   1.00
C4       0.24019    0.14395    0.29537   1.00
C5       0.21884    0.12471    0.27287   1.00
H2       0.21600    0.16102    0.26633   1.00
H2       0.17533    0.08370    0.27229   1.00
H2       0.25217    0.11761    0.26609   1.00
C6       0.30824    0.17965    0.29998   1.00
C6       0.36018    0.20153    0.28374   1.00
C4       0.38802    0.16137    0.27855   1.00
C5       0.36003    0.09240    0.28744   1.00
H2       0.38487    0.09507    0.29952   1.00
H2       0.36430    0.06300    0.27787   1.00
H2       0.31270    0.07455    0.29070   1.00
C4       0.38065    0.26377    0.27436   1.00
C5       0.35244    0.31072    0.27971   1.00
H2       0.31219    0.29821    0.27178   1.00
H2       0.38615    0.35708    0.27684   1.00
H2       0.34093    0.30603    0.29383   1.00
C3       0.43882    0.18482    0.26395   1.00
H1       0.45694    0.15747    0.26018   1.00
C3       0.43476    0.28540    0.25975   1.00
H1       0.45071    0.32724    0.25339   1.00
C2       0.46307    0.24703    0.25488   1.00
C2       0.92778    0.78961    0.33038   1.00
C3       0.89672    0.72350    0.33472   1.00
H1       0.89330    0.71027    0.34822   1.00
C3       0.93078    0.80787    0.31064   1.00
H1       0.95139    0.85384    0.30730   1.00
C4       0.86929    0.67385    0.32001   1.00
C5       0.83348    0.59817    0.32497   1.00
H2       0.78628    0.58219    0.32787   1.00
H2       0.85459    0.59091    0.33657   1.00
H2       0.83682    0.57358    0.31360   1.00
C4       0.90377    0.75981    0.29537   1.00
C5       0.90588    0.78116    0.27287   1.00
H2       0.94503    0.78400    0.26633   1.00
H2       0.90838    0.82467    0.27229   1.00
H2       0.86545    0.74783    0.26609   1.00
C6       0.87142    0.69176    0.29998   1.00
C6       0.84136    0.63982    0.28374   1.00
C4       0.77336    0.61198    0.27855   1.00
C5       0.73238    0.63997    0.28744   1.00
H2       0.71021    0.61513    0.29952   1.00
H2       0.69871    0.63570    0.27787   1.00
H2       0.76186    0.68730    0.29070   1.00
C4       0.88313    0.61935    0.27436   1.00
C5       0.95829    0.64756    0.27971   1.00
H2       0.98603    0.68781    0.27178   1.00
H2       0.97094    0.61385    0.27684   1.00
H2       0.96511    0.65907    0.29383   1.00
C3       0.74601    0.56118    0.26395   1.00
H1       0.70054    0.54306    0.26018   1.00
C3       0.85065    0.56524    0.25975   1.00
H1       0.87654    0.54929    0.25339   1.00
C2       0.78397    0.53693    0.25488   1.00
C2       0.86184    0.07222    0.33038   1.00
C3       0.82679    0.10328    0.33472   1.00
H1       0.81698    0.10670    0.34822   1.00
C3       0.87710    0.06922    0.31064   1.00
H1       0.90246    0.04861    0.30730   1.00
C4       0.80457    0.13071    0.32001   1.00
C5       0.76470    0.16652    0.32497   1.00
H2       0.79592    0.21372    0.32787   1.00
H2       0.73633    0.14541    0.33657   1.00
H2       0.73677    0.16318    0.31360   1.00
C4       0.85605    0.09623    0.29537   1.00
C5       0.87529    0.09412    0.27287   1.00
H2       0.83898    0.05497    0.26633   1.00
H2       0.91630    0.09162    0.27229   1.00
H2       0.88239    0.13455    0.26609   1.00
C6       0.82035    0.12858    0.29998   1.00
C6       0.79847    0.15864    0.28374   1.00
C4       0.83863    0.22664    0.27855   1.00
C5       0.90760    0.26762    0.28744   1.00
H2       0.90493    0.28979    0.29952   1.00
H2       0.93700    0.30129    0.27787   1.00
H2       0.92545    0.23814    0.29070   1.00
C4       0.73623    0.11687    0.27436   1.00
C5       0.68928    0.04171    0.27971   1.00
H2       0.70179    0.01397    0.27178   1.00
H2       0.64292    0.02906    0.27684   1.00
H2       0.69397    0.03489    0.29383   1.00
C3       0.81518    0.25399    0.26395   1.00
H1       0.84253    0.29946    0.26018   1.00
C3       0.71460    0.14935    0.25975   1.00
H1       0.67276    0.12346    0.25339   1.00
C2       0.75297    0.21603    0.25488   1.00
C2       0.86184    0.78961    0.83038   1.00
C3       0.82679    0.72350    0.83472   1.00
H1       0.81698    0.71027    0.84822   1.00
C3       0.87710    0.80787    0.81064   1.00
H1       0.90246    0.85384    0.80730   1.00
C4       0.80457    0.67385    0.82001   1.00
C5       0.76470    0.59817    0.82497   1.00
H2       0.79592    0.58219    0.82787   1.00
H2       0.73633    0.59091    0.83657   1.00
H2       0.73677    0.57358    0.81360   1.00
C4       0.85605    0.75981    0.79537   1.00
C5       0.87529    0.78116    0.77287   1.00
H2       0.83898    0.78400    0.76633   1.00
H2       0.91630    0.82467    0.77229   1.00
H2       0.88239    0.74783    0.76609   1.00
C6       0.82035    0.69176    0.79998   1.00
C6       0.79847    0.63982    0.78374   1.00
C4       0.83863    0.61198    0.77855   1.00
C5       0.90760    0.63997    0.78744   1.00
H2       0.90493    0.61513    0.79952   1.00
H2       0.93700    0.63570    0.77787   1.00
H2       0.92545    0.68730    0.79070   1.00
C4       0.73623    0.61935    0.77436   1.00
C5       0.68928    0.64756    0.77971   1.00
H2       0.70179    0.68781    0.77178   1.00
H2       0.64292    0.61385    0.77684   1.00
H2       0.69397    0.65907    0.79383   1.00
C3       0.81518    0.56118    0.76395   1.00
H1       0.84253    0.54306    0.76018   1.00
C3       0.71460    0.56524    0.75975   1.00
H1       0.67276    0.54929    0.75339   1.00
C2       0.75297    0.53693    0.75488   1.00
C2       0.21039    0.07222    0.83038   1.00
C3       0.27650    0.10328    0.83472   1.00
H1       0.28973    0.10670    0.84822   1.00
C3       0.19213    0.06922    0.81064   1.00
H1       0.14616    0.04861    0.80730   1.00
C4       0.32615    0.13071    0.82001   1.00
C5       0.40183    0.16652    0.82497   1.00
H2       0.41781    0.21372    0.82787   1.00
H2       0.40909    0.14541    0.83657   1.00
H2       0.42642    0.16318    0.81360   1.00
C4       0.24019    0.09623    0.79537   1.00
C5       0.21884    0.09412    0.77287   1.00
H2       0.21600    0.05497    0.76633   1.00
H2       0.17533    0.09162    0.77229   1.00
H2       0.25217    0.13455    0.76609   1.00
C6       0.30824    0.12858    0.79998   1.00
C6       0.36018    0.15864    0.78374   1.00
C4       0.38802    0.22664    0.77855   1.00
C5       0.36003    0.26762    0.78744   1.00
H2       0.38487    0.28979    0.79952   1.00
H2       0.36430    0.30129    0.77787   1.00
H2       0.31270    0.23814    0.79070   1.00
C4       0.38065    0.11687    0.77436   1.00
C5       0.35244    0.04171    0.77971   1.00
H2       0.31219    0.01397    0.77178   1.00
H2       0.38615    0.02906    0.77684   1.00
H2       0.34093    0.03489    0.79383   1.00
C3       0.43882    0.25399    0.76395   1.00
H1       0.45694    0.29946    0.76018   1.00
C3       0.43476    0.14935    0.75975   1.00
H1       0.45071    0.12346    0.75339   1.00
C2       0.46307    0.21603    0.75488   1.00
C2       0.92778    0.13816    0.83038   1.00
C3       0.89672    0.17321    0.83472   1.00
H1       0.89330    0.18302    0.84822   1.00
C3       0.93078    0.12290    0.81064   1.00
H1       0.95139    0.09754    0.80730   1.00
C4       0.86929    0.19543    0.82001   1.00
C5       0.83348    0.23530    0.82497   1.00
H2       0.78628    0.20408    0.82787   1.00
H2       0.85459    0.26367    0.83657   1.00
H2       0.83682    0.26323    0.81360   1.00
C4       0.90377    0.14395    0.79537   1.00
C5       0.90588    0.12471    0.77287   1.00
H2       0.94503    0.16102    0.76633   1.00
H2       0.90838    0.08370    0.77229   1.00
H2       0.86545    0.11761    0.76609   1.00
C6       0.87142    0.17965    0.79998   1.00
C6       0.84136    0.20153    0.78374   1.00
C4       0.77336    0.16137    0.77855   1.00
C5       0.73238    0.09240    0.78744   1.00
H2       0.71021    0.09507    0.79952   1.00
H2       0.69871    0.06300    0.77787   1.00
H2       0.76186    0.07455    0.79070   1.00
C4       0.88313    0.26377    0.77436   1.00
C5       0.95829    0.31072    0.77971   1.00
H2       0.98603    0.29821    0.77178   1.00
H2       0.97094    0.35708    0.77684   1.00
H2       0.96511    0.30603    0.79383   1.00
C3       0.74601    0.18482    0.76395   1.00
H1       0.70054    0.15747    0.76018   1.00
C3       0.85065    0.28540    0.75975   1.00
H1       0.87654    0.32724    0.75339   1.00
C2       0.78397    0.24703    0.75488   1.00
C2       0.12295    0.52850    0.33628   1.00
C3       0.05684    0.49345    0.33194   1.00
H1       0.04361    0.48364    0.31844   1.00
C3       0.14121    0.54376    0.35602   1.00
H1       0.18718    0.56912    0.35936   1.00
C4       0.00719    0.47123    0.34665   1.00
C5       0.93151    0.43136    0.34169   1.00
H2       0.91553    0.46258    0.33879   1.00
H2       0.92425    0.40299    0.33009   1.00
H2       0.90692    0.40343    0.35306   1.00
C4       0.09315    0.52271    0.37129   1.00
C5       0.11450    0.54195    0.39379   1.00
H2       0.11734    0.50564    0.40033   1.00
H2       0.15801    0.58296    0.39437   1.00
H2       0.08117    0.54905    0.40057   1.00
C6       0.02510    0.48701    0.36668   1.00
C6       0.97316    0.46513    0.38292   1.00
C4       0.94532    0.50529    0.38811   1.00
C5       0.97331    0.57426    0.37922   1.00
H2       0.94847    0.57159    0.36714   1.00
H2       0.96904    0.60366    0.38879   1.00
H2       0.02064    0.59211    0.37596   1.00
C4       0.95269    0.40289    0.39230   1.00
C5       0.98090    0.35594    0.38695   1.00
H2       0.02115    0.36845    0.39488   1.00
H2       0.94719    0.30958    0.38982   1.00
H2       0.99241    0.36063    0.37283   1.00
C3       0.89452    0.48184    0.40271   1.00
H1       0.87640    0.50919    0.40648   1.00
C3       0.89858    0.38126    0.40691   1.00
H1       0.88263    0.33942    0.41327   1.00
C2       0.87027    0.41963    0.41178   1.00
C2       0.40556    0.87705    0.33628   1.00
C3       0.43662    0.94316    0.33194   1.00
H1       0.44004    0.95639    0.31844   1.00
C3       0.40256    0.85879    0.35602   1.00
H1       0.38195    0.81282    0.35936   1.00
C4       0.46405    0.99281    0.34665   1.00
C5       0.49986    0.06849    0.34169   1.00
H2       0.54706    0.08447    0.33879   1.00
H2       0.47875    0.07575    0.33009   1.00
H2       0.49652    0.09308    0.35306   1.00
C4       0.42957    0.90685    0.37129   1.00
C5       0.42746    0.88550    0.39379   1.00
H2       0.38831    0.88266    0.40033   1.00
H2       0.42496    0.84199    0.39437   1.00
H2       0.46789    0.91883    0.40057   1.00
C6       0.46192    0.97490    0.36668   1.00
C6       0.49198    0.02684    0.38292   1.00
C4       0.55998    0.05468    0.38811   1.00
C5       0.60096    0.02669    0.37922   1.00
H2       0.62313    0.05153    0.36714   1.00
H2       0.63463    0.03096    0.38879   1.00
H2       0.57148    0.97936    0.37596   1.00
C4       0.45021    0.04731    0.39230   1.00
C5       0.37505    0.01910    0.38695   1.00
H2       0.34731    0.97885    0.39488   1.00
H2       0.36240    0.05281    0.38982   1.00
H2       0.36823    0.00759    0.37283   1.00
C3       0.58733    0.10548    0.40271   1.00
H1       0.63280    0.12360    0.40648   1.00
C3       0.48269    0.10142    0.40691   1.00
H1       0.45680    0.11737    0.41327   1.00
C2       0.54937    0.12973    0.41178   1.00
C2       0.47150    0.59444    0.33628   1.00
C3       0.50655    0.56338    0.33194   1.00
H1       0.51636    0.55996    0.31844   1.00
C3       0.45624    0.59744    0.35602   1.00
H1       0.43088    0.61805    0.35936   1.00
C4       0.52877    0.53595    0.34665   1.00
C5       0.56864    0.50014    0.34169   1.00
H2       0.53742    0.45294    0.33879   1.00
H2       0.59701    0.52125    0.33009   1.00
H2       0.59657    0.50348    0.35306   1.00
C4       0.47729    0.57043    0.37129   1.00
C5       0.45805    0.57254    0.39379   1.00
H2       0.49436    0.61169    0.40033   1.00
H2       0.41704    0.57504    0.39437   1.00
H2       0.45095    0.53211    0.40057   1.00
C6       0.51299    0.53808    0.36668   1.00
C6       0.53487    0.50802    0.38292   1.00
C4       0.49471    0.44002    0.38811   1.00
C5       0.42574    0.39904    0.37922   1.00
H2       0.42841    0.37687    0.36714   1.00
H2       0.39634    0.36537    0.38879   1.00
H2       0.40789    0.42852    0.37596   1.00
C4       0.59711    0.54979    0.39230   1.00
C5       0.64406    0.62495    0.38695   1.00
H2       0.63155    0.65269    0.39488   1.00
H2       0.69042    0.63760    0.38982   1.00
H2       0.63937    0.63177    0.37283   1.00
C3       0.51816    0.41267    0.40271   1.00
H1       0.49081    0.36720    0.40648   1.00
C3       0.61874    0.51731    0.40691   1.00
H1       0.66058    0.54320    0.41327   1.00
C2       0.58037    0.45063    0.41178   1.00
C2       0.13816    0.21039    0.16962   1.00
C3       0.17321    0.27650    0.16528   1.00
H1       0.18302    0.28973    0.15178   1.00
C3       0.12290    0.19213    0.18936   1.00
H1       0.09754    0.14616    0.19270   1.00
C4       0.19543    0.32615    0.17999   1.00
C5       0.23530    0.40183    0.17503   1.00
H2       0.20408    0.41781    0.17213   1.00
H2       0.26367    0.40909    0.16343   1.00
H2       0.26323    0.42642    0.18640   1.00
C4       0.14395    0.24019    0.20463   1.00
C5       0.12471    0.21884    0.22713   1.00
H2       0.16102    0.21600    0.23367   1.00
H2       0.08370    0.17533    0.22771   1.00
H2       0.11761    0.25217    0.23391   1.00
C6       0.17965    0.30824    0.20002   1.00
C6       0.20153    0.36018    0.21626   1.00
C4       0.16137    0.38802    0.22145   1.00
C5       0.09240    0.36003    0.21256   1.00
H2       0.09507    0.38487    0.20048   1.00
H2       0.06300    0.36430    0.22213   1.00
H2       0.07455    0.31270    0.20930   1.00
C4       0.26377    0.38065    0.22564   1.00
C5       0.31072    0.35244    0.22029   1.00
H2       0.29821    0.31219    0.22822   1.00
H2       0.35708    0.38615    0.22316   1.00
H2       0.30603    0.34093    0.20617   1.00
C3       0.18482    0.43882    0.23605   1.00
H1       0.15747    0.45694    0.23982   1.00
C3       0.28540    0.43476    0.24025   1.00
H1       0.32724    0.45071    0.24661   1.00
C2       0.24703    0.46307    0.24512   1.00
C2       0.78961    0.92778    0.16962   1.00
C3       0.72350    0.89672    0.16528   1.00
H1       0.71027    0.89330    0.15178   1.00
C3       0.80787    0.93078    0.18936   1.00
H1       0.85384    0.95139    0.19270   1.00
C4       0.67385    0.86929    0.17999   1.00
C5       0.59817    0.83348    0.17503   1.00
H2       0.58219    0.78628    0.17213   1.00
H2       0.59091    0.85459    0.16343   1.00
H2       0.57358    0.83682    0.18640   1.00
C4       0.75981    0.90377    0.20463   1.00
C5       0.78116    0.90588    0.22713   1.00
H2       0.78400    0.94503    0.23367   1.00
H2       0.82467    0.90838    0.22771   1.00
H2       0.74783    0.86545    0.23391   1.00
C6       0.69176    0.87142    0.20002   1.00
C6       0.63982    0.84136    0.21626   1.00
C4       0.61198    0.77336    0.22145   1.00
C5       0.63997    0.73238    0.21256   1.00
H2       0.61513    0.71021    0.20048   1.00
H2       0.63570    0.69871    0.22213   1.00
H2       0.68730    0.76186    0.20930   1.00
C4       0.61935    0.88313    0.22564   1.00
C5       0.64756    0.95829    0.22029   1.00
H2       0.68781    0.98603    0.22822   1.00
H2       0.61385    0.97094    0.22316   1.00
H2       0.65907    0.96511    0.20617   1.00
C3       0.56118    0.74601    0.23605   1.00
H1       0.54306    0.70054    0.23982   1.00
C3       0.56524    0.85065    0.24025   1.00
H1       0.54929    0.87654    0.24661   1.00
C2       0.53693    0.78397    0.24512   1.00
C2       0.07222    0.86184    0.16962   1.00
C3       0.10328    0.82679    0.16528   1.00
H1       0.10670    0.81698    0.15178   1.00
C3       0.06922    0.87710    0.18936   1.00
H1       0.04861    0.90246    0.19270   1.00
C4       0.13071    0.80457    0.17999   1.00
C5       0.16652    0.76470    0.17503   1.00
H2       0.21372    0.79592    0.17213   1.00
H2       0.14541    0.73633    0.16343   1.00
H2       0.16318    0.73677    0.18640   1.00
C4       0.09623    0.85605    0.20463   1.00
C5       0.09412    0.87529    0.22713   1.00
H2       0.05497    0.83898    0.23367   1.00
H2       0.09162    0.91630    0.22771   1.00
H2       0.13455    0.88239    0.23391   1.00
C6       0.12858    0.82035    0.20002   1.00
C6       0.15864    0.79847    0.21626   1.00
C4       0.22664    0.83863    0.22145   1.00
C5       0.26762    0.90760    0.21256   1.00
H2       0.28979    0.90493    0.20048   1.00
H2       0.30129    0.93700    0.22213   1.00
H2       0.23814    0.92545    0.20930   1.00
C4       0.11687    0.73623    0.22564   1.00
C5       0.04171    0.68928    0.22029   1.00
H2       0.01397    0.70179    0.22822   1.00
H2       0.02906    0.64292    0.22316   1.00
H2       0.03489    0.69397    0.20617   1.00
C3       0.25399    0.81518    0.23605   1.00
H1       0.29946    0.84253    0.23982   1.00
C3       0.14935    0.71460    0.24025   1.00
H1       0.12346    0.67276    0.24661   1.00
C2       0.21603    0.75297    0.24512   1.00
C2       0.87705    0.47150    0.66372   1.00
C3       0.94316    0.50655    0.66806   1.00
H1       0.95639    0.51636    0.68156   1.00
C3       0.85879    0.45624    0.64398   1.00
H1       0.81282    0.43088    0.64064   1.00
C4       0.99281    0.52877    0.65335   1.00
C5       0.06849    0.56864    0.65831   1.00
H2       0.08447    0.53742    0.66121   1.00
H2       0.07575    0.59701    0.66991   1.00
H2       0.09308    0.59657    0.64694   1.00
C4       0.90685    0.47729    0.62871   1.00
C5       0.88550    0.45805    0.60621   1.00
H2       0.88266    0.49436    0.59967   1.00
H2       0.84199    0.41704    0.60563   1.00
H2       0.91883    0.45095    0.59943   1.00
C6       0.97490    0.51299    0.63332   1.00
C6       0.02684    0.53487    0.61708   1.00
C4       0.05468    0.49471    0.61189   1.00
C5       0.02669    0.42574    0.62078   1.00
H2       0.05153    0.42841    0.63286   1.00
H2       0.03096    0.39634    0.61121   1.00
H2       0.97936    0.40789    0.62404   1.00
C4       0.04731    0.59711    0.60770   1.00
C5       0.01910    0.64406    0.61305   1.00
H2       0.97885    0.63155    0.60512   1.00
H2       0.05281    0.69042    0.61018   1.00
H2       0.00759    0.63937    0.62717   1.00
C3       0.10548    0.51816    0.59729   1.00
H1       0.12360    0.49081    0.59352   1.00
C3       0.10142    0.61874    0.59309   1.00
H1       0.11737    0.66058    0.58673   1.00
C2       0.12973    0.58037    0.58822   1.00
C2       0.59444    0.12295    0.66372   1.00
C3       0.56338    0.05684    0.66806   1.00
H1       0.55996    0.04361    0.68156   1.00
C3       0.59744    0.14121    0.64398   1.00
H1       0.61805    0.18718    0.64064   1.00
C4       0.53595    0.00719    0.65335   1.00
C5       0.50014    0.93151    0.65831   1.00
H2       0.45294    0.91553    0.66121   1.00
H2       0.52125    0.92425    0.66991   1.00
H2       0.50348    0.90692    0.64694   1.00
C4       0.57043    0.09315    0.62871   1.00
C5       0.57254    0.11450    0.60621   1.00
H2       0.61169    0.11734    0.59967   1.00
H2       0.57504    0.15801    0.60563   1.00
H2       0.53211    0.08117    0.59943   1.00
C6       0.53808    0.02510    0.63332   1.00
C6       0.50802    0.97316    0.61708   1.00
C4       0.44002    0.94532    0.61189   1.00
C5       0.39904    0.97331    0.62078   1.00
H2       0.37687    0.94847    0.63286   1.00
H2       0.36537    0.96904    0.61121   1.00
H2       0.42852    0.02064    0.62404   1.00
C4       0.54979    0.95269    0.60770   1.00
C5       0.62495    0.98090    0.61305   1.00
H2       0.65269    0.02115    0.60512   1.00
H2       0.63760    0.94719    0.61018   1.00
H2       0.63177    0.99241    0.62717   1.00
C3       0.41267    0.89452    0.59729   1.00
H1       0.36720    0.87640    0.59352   1.00
C3       0.51731    0.89858    0.59309   1.00
H1       0.54320    0.88263    0.58673   1.00
C2       0.45063    0.87027    0.58822   1.00
C2       0.52850    0.40556    0.66372   1.00
C3       0.49345    0.43662    0.66806   1.00
H1       0.48364    0.44004    0.68156   1.00
C3       0.54376    0.40256    0.64398   1.00
H1       0.56912    0.38195    0.64064   1.00
C4       0.47123    0.46405    0.65335   1.00
C5       0.43136    0.49986    0.65831   1.00
H2       0.46258    0.54706    0.66121   1.00
H2       0.40299    0.47875    0.66991   1.00
H2       0.40343    0.49652    0.64694   1.00
C4       0.52271    0.42957    0.62871   1.00
C5       0.54195    0.42746    0.60621   1.00
H2       0.50564    0.38831    0.59967   1.00
H2       0.58296    0.42496    0.60563   1.00
H2       0.54905    0.46789    0.59943   1.00
C6       0.48701    0.46192    0.63332   1.00
C6       0.46513    0.49198    0.61708   1.00
C4       0.50529    0.55998    0.61189   1.00
C5       0.57426    0.60096    0.62078   1.00
H2       0.57159    0.62313    0.63286   1.00
H2       0.60366    0.63463    0.61121   1.00
H2       0.59211    0.57148    0.62404   1.00
C4       0.40289    0.45021    0.60770   1.00
C5       0.35594    0.37505    0.61305   1.00
H2       0.36845    0.34731    0.60512   1.00
H2       0.30958    0.36240    0.61018   1.00
H2       0.36063    0.36823    0.62717   1.00
C3       0.48184    0.58733    0.59729   1.00
H1       0.50919    0.63280    0.59352   1.00
C3       0.38126    0.48269    0.59309   1.00
H1       0.33942    0.45680    0.58673   1.00
C2       0.41963    0.54937    0.58822   1.00
C2       0.52850    0.12295    0.16372   1.00
C3       0.49345    0.05684    0.16806   1.00
H1       0.48364    0.04361    0.18156   1.00
C3       0.54376    0.14121    0.14398   1.00
H1       0.56912    0.18718    0.14064   1.00
C4       0.47123    0.00719    0.15335   1.00
C5       0.43136    0.93151    0.15831   1.00
H2       0.46258    0.91553    0.16121   1.00
H2       0.40299    0.92425    0.16991   1.00
H2       0.40343    0.90692    0.14694   1.00
C4       0.52271    0.09315    0.12871   1.00
C5       0.54195    0.11450    0.10621   1.00
H2       0.50564    0.11734    0.09967   1.00
H2       0.58296    0.15801    0.10563   1.00
H2       0.54905    0.08117    0.09943   1.00
C6       0.48701    0.02510    0.13332   1.00
C6       0.46513    0.97316    0.11708   1.00
C4       0.50529    0.94532    0.11189   1.00
C5       0.57426    0.97331    0.12078   1.00
H2       0.57159    0.94847    0.13286   1.00
H2       0.60366    0.96904    0.11121   1.00
H2       0.59211    0.02064    0.12404   1.00
C4       0.40289    0.95269    0.10770   1.00
C5       0.35594    0.98090    0.11305   1.00
H2       0.36845    0.02115    0.10512   1.00
H2       0.30958    0.94719    0.11018   1.00
H2       0.36063    0.99241    0.12717   1.00
C3       0.48184    0.89452    0.09729   1.00
H1       0.50919    0.87640    0.09352   1.00
C3       0.38126    0.89858    0.09309   1.00
H1       0.33942    0.88263    0.08673   1.00
C2       0.41963    0.87027    0.08822   1.00
C2       0.87705    0.40556    0.16372   1.00
C3       0.94316    0.43662    0.16806   1.00
H1       0.95639    0.44004    0.18156   1.00
C3       0.85879    0.40256    0.14398   1.00
H1       0.81282    0.38195    0.14064   1.00
C4       0.99281    0.46405    0.15335   1.00
C5       0.06849    0.49986    0.15831   1.00
H2       0.08447    0.54706    0.16121   1.00
H2       0.07575    0.47875    0.16991   1.00
H2       0.09308    0.49652    0.14694   1.00
C4       0.90685    0.42957    0.12871   1.00
C5       0.88550    0.42746    0.10621   1.00
H2       0.88266    0.38831    0.09967   1.00
H2       0.84199    0.42496    0.10563   1.00
H2       0.91883    0.46789    0.09943   1.00
C6       0.97490    0.46192    0.13332   1.00
C6       0.02684    0.49198    0.11708   1.00
C4       0.05468    0.55998    0.11189   1.00
C5       0.02669    0.60096    0.12078   1.00
H2       0.05153    0.62313    0.13286   1.00
H2       0.03096    0.63463    0.11121   1.00
H2       0.97936    0.57148    0.12404   1.00
C4       0.04731    0.45021    0.10770   1.00
C5       0.01910    0.37505    0.11305   1.00
H2       0.97885    0.34731    0.10512   1.00
H2       0.05281    0.36240    0.11018   1.00
H2       0.00759    0.36823    0.12717   1.00
C3       0.10548    0.58733    0.09729   1.00
H1       0.12360    0.63280    0.09352   1.00
C3       0.10142    0.48269    0.09309   1.00
H1       0.11737    0.45680    0.08673   1.00
C2       0.12973    0.54937    0.08822   1.00
C2       0.59444    0.47150    0.16372   1.00
C3       0.56338    0.50655    0.16806   1.00
H1       0.55996    0.51636    0.18156   1.00
C3       0.59744    0.45624    0.14398   1.00
H1       0.61805    0.43088    0.14064   1.00
C4       0.53595    0.52877    0.15335   1.00
C5       0.50014    0.56864    0.15831   1.00
H2       0.45294    0.53742    0.16121   1.00
H2       0.52125    0.59701    0.16991   1.00
H2       0.50348    0.59657    0.14694   1.00
C4       0.57043    0.47729    0.12871   1.00
C5       0.57254    0.45805    0.10621   1.00
H2       0.61169    0.49436    0.09967   1.00
H2       0.57504    0.41704    0.10563   1.00
H2       0.53211    0.45095    0.09943   1.00
C6       0.53808    0.51299    0.13332   1.00
C6       0.50802    0.53487    0.11708   1.00
C4       0.44002    0.49471    0.11189   1.00
C5       0.39904    0.42574    0.12078   1.00
H2       0.37687    0.42841    0.13286   1.00
H2       0.36537    0.39634    0.11121   1.00
H2       0.42852    0.40789    0.12404   1.00
C4       0.54979    0.59711    0.10770   1.00
C5       0.62495    0.64406    0.11305   1.00
H2       0.65269    0.63155    0.10512   1.00
H2       0.63760    0.69042    0.11018   1.00
H2       0.63177    0.63937    0.12717   1.00
C3       0.41267    0.51816    0.09729   1.00
H1       0.36720    0.49081    0.09352   1.00
C3       0.51731    0.61874    0.09309   1.00
H1       0.54320    0.66058    0.08673   1.00
C2       0.45063    0.58037    0.08822   1.00
C2       0.78961    0.86184    0.66962   1.00
C3       0.72350    0.82679    0.66528   1.00
H1       0.71027    0.81698    0.65178   1.00
C3       0.80787    0.87710    0.68936   1.00
H1       0.85384    0.90246    0.69270   1.00
C4       0.67385    0.80457    0.67999   1.00
C5       0.59817    0.76470    0.67503   1.00
H2       0.58219    0.79592    0.67213   1.00
H2       0.59091    0.73633    0.66343   1.00
H2       0.57358    0.73677    0.68640   1.00
C4       0.75981    0.85605    0.70463   1.00
C5       0.78116    0.87529    0.72713   1.00
H2       0.78400    0.83898    0.73367   1.00
H2       0.82467    0.91630    0.72771   1.00
H2       0.74783    0.88239    0.73391   1.00
C6       0.69176    0.82035    0.70002   1.00
C6       0.63982    0.79847    0.71626   1.00
C4       0.61198    0.83863    0.72145   1.00
C5       0.63997    0.90760    0.71256   1.00
H2       0.61513    0.90493    0.70048   1.00
H2       0.63570    0.93700    0.72213   1.00
H2       0.68730    0.92545    0.70930   1.00
C4       0.61935    0.73623    0.72564   1.00
C5       0.64756    0.68928    0.72029   1.00
H2       0.68781    0.70179    0.72822   1.00
H2       0.61385    0.64292    0.72316   1.00
H2       0.65907    0.69397    0.70617   1.00
C3       0.56118    0.81518    0.73605   1.00
H1       0.54306    0.84253    0.73982   1.00
C3       0.56524    0.71460    0.74025   1.00
H1       0.54929    0.67276    0.74661   1.00
C2       0.53693    0.75297    0.74512   1.00
C2       0.07222    0.21039    0.66962   1.00
C3       0.10328    0.27650    0.66528   1.00
H1       0.10670    0.28973    0.65178   1.00
C3       0.06922    0.19213    0.68936   1.00
H1       0.04861    0.14616    0.69270   1.00
C4       0.13071    0.32615    0.67999   1.00
C5       0.16652    0.40183    0.67503   1.00
H2       0.21372    0.41781    0.67213   1.00
H2       0.14541    0.40909    0.66343   1.00
H2       0.16318    0.42642    0.68640   1.00
C4       0.09623    0.24019    0.70463   1.00
C5       0.09412    0.21884    0.72713   1.00
H2       0.05497    0.21600    0.73367   1.00
H2       0.09162    0.17533    0.72771   1.00
H2       0.13455    0.25217    0.73391   1.00
C6       0.12858    0.30824    0.70002   1.00
C6       0.15864    0.36018    0.71626   1.00
C4       0.22664    0.38802    0.72145   1.00
C5       0.26762    0.36003    0.71256   1.00
H2       0.28979    0.38487    0.70048   1.00
H2       0.30129    0.36430    0.72213   1.00
H2       0.23814    0.31270    0.70930   1.00
C4       0.11687    0.38065    0.72564   1.00
C5       0.04171    0.35244    0.72029   1.00
H2       0.01397    0.31219    0.72822   1.00
H2       0.02906    0.38615    0.72316   1.00
H2       0.03489    0.34093    0.70617   1.00
C3       0.25399    0.43882    0.73605   1.00
H1       0.29946    0.45694    0.73982   1.00
C3       0.14935    0.43476    0.74025   1.00
H1       0.12346    0.45071    0.74661   1.00
C2       0.21603    0.46307    0.74512   1.00
C2       0.13816    0.92778    0.66962   1.00
C3       0.17321    0.89672    0.66528   1.00
H1       0.18302    0.89330    0.65178   1.00
C3       0.12290    0.93078    0.68936   1.00
H1       0.09754    0.95139    0.69270   1.00
C4       0.19543    0.86929    0.67999   1.00
C5       0.23530    0.83348    0.67503   1.00
H2       0.20408    0.78628    0.67213   1.00
H2       0.26367    0.85459    0.66343   1.00
H2       0.26323    0.83682    0.68640   1.00
C4       0.14395    0.90377    0.70463   1.00
C5       0.12471    0.90588    0.72713   1.00
H2       0.16102    0.94503    0.73367   1.00
H2       0.08370    0.90838    0.72771   1.00
H2       0.11761    0.86545    0.73391   1.00
C6       0.17965    0.87142    0.70002   1.00
C6       0.20153    0.84136    0.71626   1.00
C4       0.16137    0.77336    0.72145   1.00
C5       0.09240    0.73238    0.71256   1.00
H2       0.09507    0.71021    0.70048   1.00
H2       0.06300    0.69871    0.72213   1.00
H2       0.07455    0.76186    0.70930   1.00
C4       0.26377    0.88313    0.72564   1.00
C5       0.31072    0.95829    0.72029   1.00
H2       0.29821    0.98603    0.72822   1.00
H2       0.35708    0.97094    0.72316   1.00
H2       0.30603    0.96511    0.70617   1.00
C3       0.18482    0.74601    0.73605   1.00
H1       0.15747    0.70054    0.73982   1.00
C3       0.28540    0.85065    0.74025   1.00
H1       0.32724    0.87654    0.74661   1.00
C2       0.24703    0.78397    0.74512   1.00
