data_IRMOF10_interpen_symm_ligand3lp_label_j_1.

_audit_creation_method             'generated by an auxiliary program of Tobunporous'

_symmetry_space_group_name_H-M     'P 1'
_symmetry_Int_Tables_number        1
_symmetry_cell_setting             triclinic

_cell_length_a                    22.6523
_cell_length_b                    22.6523
_cell_length_c                    65.9502
_cell_angle_alpha                 90.0000
_cell_angle_beta                  90.0000
_cell_angle_gamma                 120.0000

loop_
_atom_site_label
_atom_site_fract_x
_atom_site_fract_y
_atom_site_fract_z
_atom_site_occupancy
O1       0.00000    -0.00000   0.62500   1.00
Zn1      0.00000    -0.00000   0.59589   1.00
Zn1      0.94848    1.04288    0.63392   1.00
Zn1      0.09439    0.05152    0.63392   1.00
Zn1      -0.04288   0.90561    0.63392   1.00
O2       0.93860    0.02610    0.58587   1.00
O2       0.08750    0.06140    0.58587   1.00
O2       -0.02610   0.91250    0.58587   1.00
O2       0.91305    0.07161    0.61181   1.00
O2       0.00462    0.12022    0.65110   1.00
O2       0.87413    0.98074    0.65071   1.00
O2       0.15856    0.08695    0.61181   1.00
O2       0.10660    0.12587    0.65071   1.00
O2       0.11559    0.99538    0.65110   1.00
O2       -0.07161   0.84144    0.61181   1.00
O2       0.87978    0.88441    0.65110   1.00
O2       0.01926    0.89340    0.65071   1.00
C1       0.91390    0.06020    0.59358   1.00
C1       0.14630    0.08610    0.59358   1.00
C1       -0.06020   0.85370    0.59358   1.00
C1       0.06663    0.14397    0.65673   1.00
C1       0.85603    0.92267    0.65673   1.00
C1       0.07733    0.93337    0.65673   1.00
O1       -0.00000   0.00000    0.87500   1.00
Zn1      -0.00000   0.00000    0.90411   1.00
Zn1      1.04288    0.94848    0.86608   1.00
Zn1      0.05152    0.09439    0.86608   1.00
Zn1      0.90561    -0.04288   0.86608   1.00
O2       0.02610    0.93860    0.91413   1.00
O2       0.06140    0.08750    0.91413   1.00
O2       0.91250    -0.02610   0.91413   1.00
O2       0.07161    0.91305    0.88819   1.00
O2       0.12022    0.00462    0.84890   1.00
O2       0.98074    0.87413    0.84929   1.00
O2       0.08695    0.15856    0.88819   1.00
O2       0.12587    0.10660    0.84929   1.00
O2       0.99538    0.11559    0.84890   1.00
O2       0.84144    -0.07161   0.88819   1.00
O2       0.88441    0.87978    0.84890   1.00
O2       0.89340    0.01926    0.84929   1.00
C1       0.06020    0.91390    0.90642   1.00
C1       0.08610    0.14630    0.90642   1.00
C1       0.85370    -0.06020   0.90642   1.00
C1       0.14397    0.06663    0.84327   1.00
C1       0.92267    0.85603    0.84327   1.00
C1       0.93337    0.07733    0.84327   1.00
O1       0.00000    0.00000    0.37500   1.00
Zn1      0.00000    0.00000    0.40411   1.00
Zn1      0.05152    -0.04288   0.36608   1.00
Zn1      0.90561    0.94848    0.36608   1.00
Zn1      1.04288    0.09439    0.36608   1.00
O2       0.06140    -0.02610   0.41413   1.00
O2       0.91250    0.93860    0.41413   1.00
O2       0.02610    0.08750    0.41413   1.00
O2       0.08695    -0.07161   0.38819   1.00
O2       0.99538    0.87978    0.34890   1.00
O2       0.12587    0.01926    0.34929   1.00
O2       0.84144    0.91305    0.38819   1.00
O2       0.89340    0.87413    0.34929   1.00
O2       0.88441    0.00462    0.34890   1.00
O2       0.07161    0.15856    0.38819   1.00
O2       0.12022    0.11559    0.34890   1.00
O2       0.98074    0.10660    0.34929   1.00
C1       0.08610    -0.06020   0.40642   1.00
C1       0.85370    0.91390    0.40642   1.00
C1       0.06020    0.14630    0.40642   1.00
C1       0.93337    0.85603    0.34327   1.00
C1       0.14397    0.07733    0.34327   1.00
C1       0.92267    0.06663    0.34327   1.00
O1       0.00000    0.00000    0.12500   1.00
Zn1      0.00000    0.00000    0.09589   1.00
Zn1      -0.04288   0.05152    0.13392   1.00
Zn1      0.94848    0.90561    0.13392   1.00
Zn1      0.09439    1.04288    0.13392   1.00
O2       -0.02610   0.06140    0.08587   1.00
O2       0.93860    0.91250    0.08587   1.00
O2       0.08750    0.02610    0.08587   1.00
O2       -0.07161   0.08695    0.11181   1.00
O2       0.87978    0.99538    0.15110   1.00
O2       0.01926    0.12587    0.15071   1.00
O2       0.91305    0.84144    0.11181   1.00
O2       0.87413    0.89340    0.15071   1.00
O2       0.00462    0.88441    0.15110   1.00
O2       0.15856    0.07161    0.11181   1.00
O2       0.11559    0.12022    0.15110   1.00
O2       0.10660    0.98074    0.15071   1.00
C1       -0.06020   0.08610    0.09358   1.00
C1       0.91390    0.85370    0.09358   1.00
C1       0.14630    0.06020    0.09358   1.00
C1       0.85603    0.93337    0.15673   1.00
C1       0.07733    0.14397    0.15673   1.00
C1       0.06663    0.92267    0.15673   1.00
O1       0.66667    0.33333    0.95833   1.00
Zn1      0.66667    0.33333    0.92922   1.00
Zn1      0.61515    0.37621    0.96725   1.00
Zn1      0.76106    0.38485    0.96725   1.00
Zn1      -0.37621   0.23894    0.96725   1.00
O2       0.60527    0.35943    0.91920   1.00
O2       0.75417    0.39473    0.91920   1.00
O2       0.64057    0.24583    0.91920   1.00
O2       0.57972    0.40494    0.94514   1.00
O2       0.67129    0.45355    0.98443   1.00
O2       0.54080    0.31407    0.98404   1.00
O2       0.82523    0.42028    0.94514   1.00
O2       0.77327    0.45920    0.98404   1.00
O2       -0.21774   0.32871    0.98443   1.00
O2       0.59506    0.17477    0.94514   1.00
O2       0.54645    0.21774    0.98443   1.00
O2       -0.31407   0.22673    0.98404   1.00
C1       0.58057    0.39353    0.92691   1.00
C1       0.81297    0.41943    0.92691   1.00
C1       0.60647    0.18703    0.92691   1.00
C1       0.73330    0.47730    0.99006   1.00
C1       0.52270    0.25600    0.99006   1.00
C1       -0.25600   0.26670    0.99006   1.00
O1       0.66667    0.33333    0.20833   1.00
Zn1      0.66667    0.33333    0.23744   1.00
Zn1      0.70954    0.28182    0.19942   1.00
Zn1      0.71818    0.42773    0.19942   1.00
Zn1      0.57227    0.29046    0.19942   1.00
O2       0.69277    0.27193    0.24746   1.00
O2       0.72807    0.42083    0.24746   1.00
O2       0.57917    0.30723    0.24746   1.00
O2       0.73828    0.24638    0.22152   1.00
O2       0.78688    0.33796    0.18224   1.00
O2       0.64740    0.20747    0.18263   1.00
O2       0.75362    0.49189    0.22152   1.00
O2       0.79253    0.43994    0.18263   1.00
O2       0.66204    0.44893    0.18224   1.00
O2       0.50811    0.26172    0.22152   1.00
O2       0.55107    0.21312    0.18224   1.00
O2       0.56006    0.35260    0.18263   1.00
C1       0.72687    0.24723    0.23975   1.00
C1       0.75277    0.47963    0.23975   1.00
C1       0.52037    0.27313    0.23975   1.00
C1       0.81063    0.39997    0.17661   1.00
C1       0.58933    0.18937    0.17661   1.00
C1       0.60003    0.41067    0.17661   1.00
O1       0.66667    0.33333    0.70833   1.00
Zn1      0.66667    0.33333    0.73744   1.00
Zn1      0.71818    0.29046    0.69942   1.00
Zn1      0.57227    0.28182    0.69942   1.00
Zn1      0.70954    0.42773    0.69942   1.00
O2       0.72807    0.30723    0.74746   1.00
O2       0.57917    0.27193    0.74746   1.00
O2       0.69277    0.42083    0.74746   1.00
O2       0.75362    0.26172    0.72152   1.00
O2       0.66204    0.21312    0.68224   1.00
O2       0.79253    0.35260    0.68263   1.00
O2       0.50811    0.24638    0.72152   1.00
O2       0.56006    0.20747    0.68263   1.00
O2       0.55107    0.33796    0.68224   1.00
O2       0.73828    0.49189    0.72152   1.00
O2       0.78688    0.44893    0.68224   1.00
O2       0.64740    0.43994    0.68263   1.00
C1       0.75277    0.27313    0.73975   1.00
C1       0.52037    0.24723    0.73975   1.00
C1       0.72687    0.47963    0.73975   1.00
C1       0.60003    0.18937    0.67661   1.00
C1       0.81063    0.41067    0.67661   1.00
C1       0.58933    0.39997    0.67661   1.00
O1       0.66667    0.33333    0.45833   1.00
Zn1      0.66667    0.33333    0.42922   1.00
Zn1      -0.37621   0.38485    0.46725   1.00
Zn1      0.61515    0.23894    0.46725   1.00
Zn1      0.76106    0.37621    0.46725   1.00
O2       0.64057    0.39473    0.41920   1.00
O2       0.60527    0.24583    0.41920   1.00
O2       0.75417    0.35943    0.41920   1.00
O2       0.59506    0.42028    0.44514   1.00
O2       0.54645    0.32871    0.48443   1.00
O2       -0.31407   0.45920    0.48404   1.00
O2       0.57972    0.17477    0.44514   1.00
O2       0.54080    0.22673    0.48404   1.00
O2       0.67129    0.21774    0.48443   1.00
O2       0.82523    0.40494    0.44514   1.00
O2       -0.21774   0.45355    0.48443   1.00
O2       0.77327    0.31407    0.48404   1.00
C1       0.60647    0.41943    0.42691   1.00
C1       0.58057    0.18703    0.42691   1.00
C1       0.81297    0.39353    0.42691   1.00
C1       0.52270    0.26670    0.49006   1.00
C1       -0.25600   0.47730    0.49006   1.00
C1       0.73330    0.25600    0.49006   1.00
O1       0.33333    0.66667    0.29167   1.00
Zn1      0.33333    0.66667    0.26256   1.00
Zn1      0.28182    0.70954    0.30058   1.00
Zn1      0.42773    0.71818    0.30058   1.00
Zn1      0.29046    0.57227    0.30058   1.00
O2       0.27193    0.69277    0.25254   1.00
O2       0.42083    0.72807    0.25254   1.00
O2       0.30723    0.57917    0.25254   1.00
O2       0.24638    0.73828    0.27848   1.00
O2       0.33796    0.78688    0.31776   1.00
O2       0.20747    0.64740    0.31737   1.00
O2       0.49189    0.75362    0.27848   1.00
O2       0.43994    0.79253    0.31737   1.00
O2       0.44893    0.66204    0.31776   1.00
O2       0.26172    0.50811    0.27848   1.00
O2       0.21312    0.55107    0.31776   1.00
O2       0.35260    0.56006    0.31737   1.00
C1       0.24723    0.72687    0.26025   1.00
C1       0.47963    0.75277    0.26025   1.00
C1       0.27313    0.52037    0.26025   1.00
C1       0.39997    0.81063    0.32339   1.00
C1       0.18937    0.58933    0.32339   1.00
C1       0.41067    0.60003    0.32339   1.00
O1       0.33333    0.66667    0.54167   1.00
Zn1      0.33333    0.66667    0.57078   1.00
Zn1      0.37621    0.61515    0.53275   1.00
Zn1      0.38485    0.76106    0.53275   1.00
Zn1      0.23894    -0.37621   0.53275   1.00
O2       0.35943    0.60527    0.58080   1.00
O2       0.39473    0.75417    0.58080   1.00
O2       0.24583    0.64057    0.58080   1.00
O2       0.40494    0.57972    0.55486   1.00
O2       0.45355    0.67129    0.51557   1.00
O2       0.31407    0.54080    0.51596   1.00
O2       0.42028    0.82523    0.55486   1.00
O2       0.45920    0.77327    0.51596   1.00
O2       0.32871    -0.21774   0.51557   1.00
O2       0.17477    0.59506    0.55486   1.00
O2       0.21774    0.54645    0.51557   1.00
O2       0.22673    -0.31407   0.51596   1.00
C1       0.39353    0.58057    0.57309   1.00
C1       0.41943    0.81297    0.57309   1.00
C1       0.18703    0.60647    0.57309   1.00
C1       0.47730    0.73330    0.50994   1.00
C1       0.25600    0.52270    0.50994   1.00
C1       0.26670    -0.25600   0.50994   1.00
O1       0.33333    0.66667    0.04167   1.00
Zn1      0.33333    0.66667    0.07078   1.00
Zn1      0.38485    -0.37621   0.03275   1.00
Zn1      0.23894    0.61515    0.03275   1.00
Zn1      0.37621    0.76106    0.03275   1.00
O2       0.39473    0.64057    0.08080   1.00
O2       0.24583    0.60527    0.08080   1.00
O2       0.35943    0.75417    0.08080   1.00
O2       0.42028    0.59506    0.05486   1.00
O2       0.32871    0.54645    0.01557   1.00
O2       0.45920    -0.31407   0.01596   1.00
O2       0.17477    0.57972    0.05486   1.00
O2       0.22673    0.54080    0.01596   1.00
O2       0.21774    0.67129    0.01557   1.00
O2       0.40494    0.82523    0.05486   1.00
O2       0.45355    -0.21774   0.01557   1.00
O2       0.31407    0.77327    0.01596   1.00
C1       0.41943    0.60647    0.07309   1.00
C1       0.18703    0.58057    0.07309   1.00
C1       0.39353    0.81297    0.07309   1.00
C1       0.26670    0.52270    0.00994   1.00
C1       0.47730    -0.25600   0.00994   1.00
C1       0.25600    0.73330    0.00994   1.00
O1       0.33333    0.66667    0.79167   1.00
Zn1      0.33333    0.66667    0.76256   1.00
Zn1      0.29046    0.71818    0.80058   1.00
Zn1      0.28182    0.57227    0.80058   1.00
Zn1      0.42773    0.70954    0.80058   1.00
O2       0.30723    0.72807    0.75254   1.00
O2       0.27193    0.57917    0.75254   1.00
O2       0.42083    0.69277    0.75254   1.00
O2       0.26172    0.75362    0.77848   1.00
O2       0.21312    0.66204    0.81776   1.00
O2       0.35260    0.79253    0.81737   1.00
O2       0.24638    0.50811    0.77848   1.00
O2       0.20747    0.56006    0.81737   1.00
O2       0.33796    0.55107    0.81776   1.00
O2       0.49189    0.73828    0.77848   1.00
O2       0.44893    0.78688    0.81776   1.00
O2       0.43994    0.64740    0.81737   1.00
C1       0.27313    0.75277    0.76025   1.00
C1       0.24723    0.52037    0.76025   1.00
C1       0.47963    0.72687    0.76025   1.00
C1       0.18937    0.60003    0.82339   1.00
C1       0.41067    0.81063    0.82339   1.00
C1       0.39997    0.58933    0.82339   1.00
C4       -0.13133   0.69529    0.54841   1.00
C4       -0.15777   0.64288    0.53333   1.00
C3       -0.08145   0.70352    0.56293   1.00
C3       -0.14165   0.58986    0.53243   1.00
C3       -0.15658   0.74173    0.54937   1.00
C3       -0.20277   0.64301    0.51819   1.00
C2       -0.08295   0.80048    0.57906   1.00
C2       -0.21456   0.53786    0.50263   1.00
C3       -0.05818   0.75440    0.57791   1.00
C3       -0.16873   0.53914    0.51739   1.00
C3       -0.13151   0.79351    0.56436   1.00
C3       -0.23178   0.58979    0.50370   1.00
H1       -0.06039   0.67294    0.56300   1.00
H1       -0.11009   0.58627    0.54274   1.00
C5       -0.20647   0.73634    0.53530   1.00
C5       -0.21910   0.69579    0.51768   1.00
H1       -0.02242   0.75759    0.58809   1.00
H1       -0.15480   0.50241    0.51738   1.00
H1       -0.14869   0.82763    0.56451   1.00
H1       -0.26726   0.58818    0.49377   1.00
O3       -0.23882   0.77346    0.53832   1.00
O3       -0.25112   0.70456    0.50105   1.00
Si1      -0.31137   0.73927    0.55046   1.00
Si1      -0.20480   0.74890    0.48182   1.00
C6       -0.31770   0.81368    0.55229   1.00
C6       -0.37423   0.67889    0.53414   1.00
C6       -0.30769   0.70802    0.57468   1.00
C6       -0.11582   0.78119    0.48284   1.00
C6       -0.23963   0.69169    0.46144   1.00
C6       -0.22190   0.81582    0.47780   1.00
C6       -0.25188   0.87952    0.55967   1.00
H2       -0.32421   0.82341    0.53646   1.00
C6       -0.37819   0.81329    0.56406   1.00
H2       -0.35200   0.69828    0.51923   1.00
C6       -0.38904   0.60363    0.53489   1.00
C6       -0.44608   0.67304    0.53370   1.00
H2       -0.26134   0.75058    0.58104   1.00
C6       -0.36639   0.69380    0.58995   1.00
C6       -0.29944   0.64329    0.57648   1.00
C6       -0.07525   0.82845    0.50104   1.00
C6       -0.08718   0.73157    0.47968   1.00
H2       -0.09782   0.81399    0.46948   1.00
H2       -0.22436   0.65383    0.46445   1.00
C6       -0.31935   0.65047    0.46015   1.00
C6       -0.21318   0.72008    0.43968   1.00
H2       -0.26964   0.79206    0.46929   1.00
C6       -0.23674   0.84605    0.49710   1.00
C6       -0.16998   0.87832    0.46483   1.00
H2       -0.20791   0.89076    0.55019   1.00
H2       -0.23939   0.87412    0.57532   1.00
H2       -0.25835   0.92418    0.55890   1.00
H2       -0.39176   0.84837    0.55684   1.00
H2       -0.42386   0.76330    0.56443   1.00
H2       -0.36483   0.83036    0.57974   1.00
H2       -0.41737   0.57543    0.52143   1.00
H2       -0.34239   0.60094    0.53512   1.00
H2       -0.41961   0.57682    0.54815   1.00
H2       -0.44219   0.72198    0.53023   1.00
H2       -0.47848   0.63770    0.52189   1.00
H2       -0.47245   0.65440    0.54817   1.00
H2       -0.41636   0.66003    0.58329   1.00
H2       -0.36250   0.67016    0.60399   1.00
H2       -0.36417   0.74083    0.59467   1.00
H2       -0.34850   0.59600    0.57618   1.00
H2       -0.26851   0.63962    0.56456   1.00
H2       -0.27485   0.64429    0.59086   1.00
H2       -0.07769   0.79911    0.51442   1.00
H2       -0.02135   0.86020    0.49712   1.00
H2       -0.09377   0.86286    0.50519   1.00
H2       -0.03174   0.76029    0.47788   1.00
H2       -0.09799   0.69743    0.49251   1.00
H2       -0.10737   0.70075    0.46602   1.00
H2       -0.33610   0.60858    0.44928   1.00
H2       -0.34216   0.62760    0.47475   1.00
H2       -0.34031   0.68235    0.45532   1.00
H2       -0.15759   0.74807    0.43899   1.00
H2       -0.23079   0.67821    0.42877   1.00
H2       -0.23189   0.75367    0.43460   1.00
H2       -0.19319   0.86930    0.50737   1.00
H2       -0.25073   0.88436    0.49322   1.00
H2       -0.27946   0.80589    0.50534   1.00
H2       -0.19122   0.91084    0.46086   1.00
H2       -0.12248   0.90971    0.47309   1.00
H2       -0.15772   0.86236    0.45060   1.00
C4       0.30691    0.17382    0.54907   1.00
C4       0.35887    0.19921    0.53385   1.00
C3       0.31666    0.20174    0.56889   1.00
C3       0.42736    0.25085    0.53749   1.00
C3       0.24165    0.11667    0.54448   1.00
C3       0.34202    0.17199    0.51380   1.00
C2       0.20032    0.11743    0.57930   1.00
C2       0.46134    0.24672    0.50239   1.00
C3       0.26501    0.17412    0.58363   1.00
C3       0.47707    0.27442    0.52215   1.00
C3       0.18980    0.09036    0.55945   1.00
C3       0.39352    0.19439    0.49879   1.00
H1       0.36152    0.24311    0.57317   1.00
H1       0.44327    0.27255    0.55141   1.00
C5       0.22852    0.08635    0.52495   1.00
C5       0.27412    0.12218    0.50886   1.00
H1       0.27517    0.19615    0.59775   1.00
H1       0.52564    0.31228    0.52561   1.00
H1       0.14266    0.05054    0.55577   1.00
H1       0.38162    0.17132    0.48489   1.00
O3       0.16999    0.02484    0.52163   1.00
O3       0.25391    0.10517    0.48891   1.00
Si1      0.17153    -0.04618   0.52394   1.00
Si1      0.23051    0.15164    0.47607   1.00
C6       0.08288    -0.10225   0.52162   1.00
C6       0.21588    -0.05245   0.50283   1.00
C6       0.20196    -0.05496   0.54776   1.00
C6       0.23501    0.22356    0.48810   1.00
C6       0.28556    0.17829    0.45507   1.00
C6       0.14708    0.09678    0.46726   1.00
C6       0.03629    -0.08435   0.53479   1.00
H2       0.07330    -0.09409   0.50593   1.00
C6       0.05153    -0.18139   0.52387   1.00
H2       0.20847    -0.02136   0.49159   1.00
C6       0.29483    -0.02155   0.50457   1.00
C6       0.18899    -0.12381   0.49263   1.00
H2       0.17315    -0.04152   0.55824   1.00
C6       0.18623    -0.12818   0.55401   1.00
C6       0.27937    -0.00783   0.55323   1.00
C6       0.19466    0.21214    0.50833   1.00
C6       0.30613    0.28923    0.49129   1.00
H2       0.20981    0.23967    0.47711   1.00
H2       0.33517    0.21424    0.46151   1.00
C6       0.29570    0.12211    0.44446   1.00
C6       0.27183    0.21730    0.43782   1.00
H2       0.15435    0.07288    0.45383   1.00
C6       0.09991    0.03630    0.48146   1.00
C6       0.10370    0.12933    0.46013   1.00
H2       0.04681    -0.03250   0.53186   1.00
H2       0.04375    -0.08872   0.55098   1.00
H2       -0.01763   -0.11832   0.53133   1.00
H2       0.00712    -0.20817   0.51397   1.00
H2       0.08719    -0.19843   0.51991   1.00
H2       0.03370    -0.19905   0.53928   1.00
H2       0.31772    -0.01561   0.48956   1.00
H2       0.31972    0.02894    0.51141   1.00
H2       0.30730    -0.05453   0.51345   1.00
H2       0.13583    -0.14595   0.48799   1.00
H2       0.21767    -0.11984   0.47885   1.00
H2       0.19374    -0.15914   0.50287   1.00
H2       0.20337    -0.15056   0.54237   1.00
H2       0.21102    -0.12792   0.56829   1.00
H2       0.13209    -0.16182   0.55666   1.00
H2       0.31055    -0.02924   0.54807   1.00
H2       0.30154    0.04296    0.54688   1.00
H2       0.28557    -0.00179   0.56969   1.00
H2       0.22320    0.21021    0.52137   1.00
H2       0.18477    0.25408    0.51099   1.00
H2       0.14539    0.16539    0.50809   1.00
H2       0.29981    0.33189    0.49621   1.00
H2       0.33639    0.28227    0.50285   1.00
H2       0.33591    0.30569    0.47734   1.00
H2       0.33893    0.14543    0.43399   1.00
H2       0.30691    0.09302    0.45549   1.00
H2       0.25079    0.08638    0.43582   1.00
H2       0.26608    0.25908    0.44380   1.00
H2       0.31465    0.23976    0.42718   1.00
H2       0.22609    0.18319    0.42919   1.00
H2       0.09074    0.05375    0.49591   1.00
H2       0.05064    0.00258    0.47438   1.00
H2       0.12341    0.00566    0.48464   1.00
H2       0.05768    0.09176    0.45220   1.00
H2       0.08767    0.14850    0.47297   1.00
H2       0.13187    0.17132    0.44958   1.00
C4       0.83090    0.13942    0.54953   1.00
C4       0.80546    0.16490    0.53400   1.00
C3       0.87380    0.18021    0.56556   1.00
C3       0.82531    0.23482    0.53190   1.00
C3       0.81366    0.06958    0.54898   1.00
C3       0.75732    0.11835    0.51972   1.00
C2       0.88299    0.08491    0.57978   1.00
C2       0.75286    0.21260    0.50191   1.00
C3       0.89946    0.15385    0.58021   1.00
C3       0.79928    0.25797    0.51642   1.00
C3       0.83904    0.04365    0.56412   1.00
C3       0.73394    0.14312    0.50371   1.00
H1       0.88746    0.23020    0.56711   1.00
H1       0.85958    0.27106    0.54147   1.00
C5       0.77096    0.02602    0.53337   1.00
C5       0.73319    0.04748    0.52134   1.00
H1       0.93067    0.18590    0.59136   1.00
H1       0.81501    0.30903    0.51574   1.00
H1       0.82471    -0.00700   0.56385   1.00
H1       0.70289    0.10978    0.49286   1.00
O3       0.76372    -0.03770   0.53090   1.00
O3       0.67729    0.00058    0.51035   1.00
Si1      0.81297    -0.04832   0.51502   1.00
Si1      0.60110    -0.02567   0.51943   1.00
C6       0.78739    -0.13326   0.52172   1.00
C6       0.78583    -0.04361   0.49031   1.00
C6       0.90071    0.00651    0.51971   1.00
C6       0.59372    0.00957    0.54257   1.00
C6       0.56110    -0.00542   0.50003   1.00
C6       0.56029    -0.11516   0.52131   1.00
C6       0.78480    -0.14817   0.54503   1.00
H2       0.73437    -0.16063   0.51667   1.00
C6       0.82179    -0.17162   0.51181   1.00
H2       0.73259    -0.05831   0.49283   1.00
C6       0.81905    0.02758    0.47963   1.00
C6       0.78457    -0.09389   0.47380   1.00
H2       0.90406    0.00101    0.53607   1.00
C6       0.95171    -0.01278   0.50980   1.00
C6       0.93350    0.08504    0.51547   1.00
C6       0.63135    0.00309    0.56159   1.00
C6       0.60561    0.08393    0.54291   1.00
H2       0.53948    -0.02197   0.54597   1.00
H2       0.58663    0.05014    0.50042   1.00
C6       0.57168    -0.02385   0.47794   1.00
C6       0.48313    -0.03168   0.50240   1.00
H2       0.54242    -0.13289   0.50592   1.00
C6       0.60662    -0.14566   0.52673   1.00
C6       0.49598    -0.15229   0.53529   1.00
H2       0.75238    -0.13293   0.55307   1.00
H2       0.83566    -0.12099   0.55178   1.00
H2       0.76359    -0.20263   0.54792   1.00
H2       0.78451    -0.22590   0.51029   1.00
H2       0.84229    -0.15253   0.49680   1.00
H2       0.86340    -0.16828   0.52105   1.00
H2       0.78846    0.02630    0.46662   1.00
H2       0.82240    0.06727    0.48968   1.00
H2       0.87004    0.04264    0.47405   1.00
H2       0.75360    -0.14687   0.47861   1.00
H2       0.76191    -0.08933   0.45965   1.00
H2       0.83604    -0.08356   0.47032   1.00
H2       0.94364    -0.01995   0.49345   1.00
H2       1.00492    0.02641    0.51235   1.00
H2       0.94672    -0.05896   0.51644   1.00
H2       0.95070    0.09803    0.49979   1.00
H2       0.89934    0.10454    0.51842   1.00
H2       0.97816    0.11379    0.52516   1.00
H2       0.68471    0.04308    0.56197   1.00
H2       0.60782    0.00779    0.57553   1.00
H2       0.62919    -0.04598   0.56223   1.00
H2       0.58990    0.09470    0.55749   1.00
H2       0.65897    0.12219    0.54080   1.00
H2       0.57573    0.09175    0.53136   1.00
H2       0.55514    0.00082    0.46684   1.00
H2       0.62543    -0.00601   0.47486   1.00
H2       0.54283    -0.07867   0.47517   1.00
H2       0.47115    -0.01919   0.51726   1.00
H2       0.46640    -0.00775   0.49109   1.00
H2       0.45286    -0.08680   0.50021   1.00
H2       0.62996    -0.12939   0.54166   1.00
H2       0.57823    -0.20136   0.52642   1.00
H2       0.64733    -0.12923   0.51566   1.00
H2       0.46949    -0.20740   0.53277   1.00
H2       0.50988    -0.14327   0.55133   1.00
H2       0.45924    -0.13566   0.53222   1.00
C4       0.69193    -0.14027   0.95061   1.00
C4       0.64109    -0.16543   0.96616   1.00
C3       0.70365    -0.18306   0.93748   1.00
C3       0.60123    -0.23550   0.97134   1.00
C3       0.73442    -0.06836   0.94811   1.00
C3       0.62880    -0.11845   0.97722   1.00
C2       0.79800    -0.08541   0.92020   1.00
C2       0.54034    -0.21210   0.99811   1.00
C3       0.75546    -0.15645   0.92277   1.00
C3       0.55179    -0.25830   0.98674   1.00
C3       0.78557    -0.04252   0.93292   1.00
C3       0.58081    -0.14215   0.99327   1.00
H1       0.67474    -0.23483   0.93817   1.00
H1       0.60723    -0.27199   0.96416   1.00
C5       0.72537    -0.02273   0.96073   1.00
C5       0.66481    -0.04805   0.97237   1.00
H1       0.76188    -0.18989   0.91381   1.00
H1       0.52407    -0.30963   0.98971   1.00
H1       0.81440    0.00916    0.93093   1.00
H1       0.57571    -0.10743   1.00189   1.00
O3       0.77328    0.04573    0.96059   1.00
O3       0.64455    -0.00407   0.97998   1.00
Si1      0.83540    0.07610    0.97708   1.00
Si1      0.58512    0.00294    0.96810   1.00
C6       0.88243    0.15878    0.96668   1.00
C6       0.80047    0.07767    1.00084   1.00
C6       0.88303    0.03376    0.97678   1.00
C6       0.54733    -0.04854   0.94648   1.00
C6       0.52281    -0.01781   0.98689   1.00
C6       0.61932    0.08965    0.96188   1.00
C6       0.89388    0.16243    0.94315   1.00
H2       0.84847    0.17928    0.96925   1.00
C6       0.95304    0.21280    0.97588   1.00
H2       0.75553    0.08058    0.99644   1.00
C6       0.77361    0.01354    1.01484   1.00
C6       0.84237    0.14010    1.01517   1.00
H2       0.89233    0.03208    0.96058   1.00
C6       0.95498    0.07082    0.98712   1.00
C6       0.84960    -0.04167   0.98472   1.00
C6       0.59495    -0.04299   0.92852   1.00
C6       0.49505    -0.12638   0.94922   1.00
H2       0.51614    -0.02811   0.94056   1.00
H2       0.50188    -0.07239   0.98923   1.00
C6       0.54938    0.01568    1.00819   1.00
C6       0.46110    -0.00776   0.98157   1.00
H2       0.61464    0.11272    0.97588   1.00
C6       0.69679    0.12997    0.95661   1.00
C6       0.58260    0.10849    0.94509   1.00
H2       0.84563    0.13476    0.93497   1.00
H2       0.92574    0.14079    0.93884   1.00
H2       0.91873    0.21510    0.93774   1.00
H2       0.96001    0.26400    0.97439   1.00
H2       0.95784    0.20434    0.99187   1.00
H2       0.99587    0.21361    0.96800   1.00
H2       0.74077    0.01485    1.02679   1.00
H2       0.74295    -0.03369   1.00653   1.00
H2       0.81562    0.01131    1.02221   1.00
H2       0.85540    0.18806    1.00766   1.00
H2       0.81299    0.13743    1.02866   1.00
H2       0.88917    0.14201    1.02030   1.00
H2       0.95165    0.08514    1.00272   1.00
H2       0.97863    0.03888    0.98745   1.00
H2       0.99041    0.11620    0.97875   1.00
H2       0.85613    -0.04393   1.00105   1.00
H2       0.79545    -0.07173   0.98165   1.00
H2       0.87348    -0.06786   0.97741   1.00
H2       0.61796    -0.07465   0.93102   1.00
H2       0.56592    -0.06033   0.91439   1.00
H2       0.63569    0.00920    0.92602   1.00
H2       0.46923    -0.14890   0.93489   1.00
H2       0.51945    -0.15491   0.95410   1.00
H2       0.45506    -0.13549   0.96009   1.00
H2       0.50917    -0.00892   1.01959   1.00
H2       0.59208    0.00978    1.01327   1.00
H2       0.56594    0.06996    1.00813   1.00
H2       0.43786    -0.03146   0.96712   1.00
H2       0.42132    -0.03149   0.99314   1.00
H2       0.47642    0.04622    0.98088   1.00
H2       0.70868    0.10991    0.94315   1.00
H2       0.71475    0.18404    0.95411   1.00
H2       0.72612    0.12680    0.96916   1.00
H2       0.60200    0.16348    0.94484   1.00
H2       0.59063    0.09362    0.93003   1.00
H2       0.52786    0.08405    0.94778   1.00
C4       0.17382    0.30690    0.95093   1.00
C4       0.19921    0.35886    0.96615   1.00
C3       0.20189    0.31657    0.93114   1.00
C3       0.25102    0.42729    0.96253   1.00
C3       0.11651    0.24172    0.95550   1.00
C3       0.17182    0.34208    0.98618   1.00
C2       0.11743    0.20031    0.92070   1.00
C2       0.24672    0.46135    0.99761   1.00
C3       0.17428    0.26492    0.91639   1.00
C3       0.27460    0.47700    0.97787   1.00
C3       0.09020    0.18986    0.94053   1.00
C3       0.19422    0.39359    1.00119   1.00
H1       0.24338    0.36136    0.92688   1.00
H1       0.27286    0.44315    0.94862   1.00
C5       0.08604    0.22867    0.97501   1.00
C5       0.12183    0.27422    0.99111   1.00
H1       0.19642    0.27503    0.90229   1.00
H1       0.31258    0.52553    0.97442   1.00
H1       0.05027    0.14278    0.94420   1.00
H1       0.17105    0.38174    1.01508   1.00
O3       0.02441    0.17024    0.97830   1.00
O3       0.10461    0.25404    1.01105   1.00
Si1      -0.04647   0.17202    0.97592   1.00
Si1      0.15082    0.23045    1.02395   1.00
C6       -0.10276   0.08341    0.97822   1.00
C6       -0.05275   0.21647    0.99700   1.00
C6       -0.05493   0.20253    0.95207   1.00
C6       0.22274    0.23472    1.01199   1.00
C6       0.17744    0.28551    1.04494   1.00
C6       0.09570    0.14707    1.03275   1.00
C6       -0.08493   0.03668    0.96510   1.00
H2       -0.09477   0.07379    0.99393   1.00
C6       -0.18185   0.05227    0.97591   1.00
H2       -0.02184   0.20894    1.00827   1.00
C6       -0.02164   0.29544    0.99525   1.00
C6       -0.12417   0.18977    1.00714   1.00
H2       -0.04152   0.17363    0.94162   1.00
C6       -0.12803   0.18702    0.94576   1.00
C6       -0.00759   0.27991    0.94661   1.00
C6       0.21137    0.19434    0.99176   1.00
C6       0.28856    0.30574    1.00882   1.00
H2       0.23865    0.20943    1.02300   1.00
H2       0.21355    0.33508    1.03852   1.00
C6       0.12129    0.29585    1.05549   1.00
C6       0.21619    0.27163    1.06224   1.00
H2       0.07176    0.15443    1.04615   1.00
C6       0.03529    0.10002    1.01851   1.00
C6       0.12800    0.10351    1.03993   1.00
H2       -0.03315   0.04706    0.96807   1.00
H2       -0.08914   0.04417    0.94890   1.00
H2       -0.11905   -0.01722   0.96855   1.00
H2       -0.20882   0.00788    0.98581   1.00
H2       -0.19877   0.08805    0.97984   1.00
H2       -0.19941   0.03446    0.96050   1.00
H2       -0.01575   0.31835    1.01025   1.00
H2       0.02891    0.32021    0.98845   1.00
H2       -0.05444   0.30804    0.98632   1.00
H2       -0.14649   0.13660    1.01179   1.00
H2       -0.12023   0.21849    1.02091   1.00
H2       -0.15934   0.19464    0.99686   1.00
H2       -0.15042   0.20426    0.95736   1.00
H2       -0.12758   0.21184    0.93147   1.00
H2       -0.16178   0.13290    0.94311   1.00
H2       -0.02890   0.31121    0.95173   1.00
H2       0.04315    0.30195    0.95300   1.00
H2       -0.00140   0.28610    0.93015   1.00
H2       0.20965    0.22293    0.97871   1.00
H2       0.25324    0.18429    0.98915   1.00
H2       0.16453    0.14515    0.99199   1.00
H2       0.33117    0.29927    1.00395   1.00
H2       0.28181    0.33608    0.99724   1.00
H2       0.30498    0.33552    1.02278   1.00
H2       0.14463    0.33908    1.06597   1.00
H2       0.09238    0.30718    1.04443   1.00
H2       0.08541    0.25099    1.06412   1.00
H2       0.25793    0.26573    1.05631   1.00
H2       0.23867    0.31444    1.07288   1.00
H2       0.18192    0.22593    1.07086   1.00
H2       0.05280    0.09078    1.00409   1.00
H2       0.00140    0.05078    1.02558   1.00
H2       0.00480    0.12366    1.01529   1.00
H2       0.09027    0.05754    1.04785   1.00
H2       0.14719    0.08739    1.02712   1.00
H2       0.16993    0.13159    1.05051   1.00
C4       0.13942    0.83090    0.95047   1.00
C4       0.16489    0.80546    0.96599   1.00
C3       0.18020    0.87378    0.93444   1.00
C3       0.23482    0.82529    0.96810   1.00
C3       0.06958    0.81368    0.95102   1.00
C3       0.11836    0.75734    0.98029   1.00
C2       0.08491    0.88299    0.92022   1.00
C2       0.21260    0.75286    0.99809   1.00
C3       0.15384    0.89944    0.91979   1.00
C3       0.25797    0.79926    0.98358   1.00
C3       0.04366    0.83906    0.93589   1.00
C3       0.14312    0.73396    0.99629   1.00
H1       0.23018    0.88743    0.93289   1.00
H1       0.27105    0.85955    0.95852   1.00
C5       0.02603    0.77100    0.96664   1.00
C5       0.04749    0.73323    0.97867   1.00
H1       0.18588    0.93063    0.90863   1.00
H1       0.30902    0.81498    0.98425   1.00
H1       -0.00699   0.82474    0.93616   1.00
H1       0.10979    0.70293    1.00715   1.00
O3       -0.03768   0.76378    0.96911   1.00
O3       0.00059    0.67733    0.98966   1.00
Si1      -0.04827   0.81306    0.98499   1.00
Si1      -0.02570   0.60114    0.98059   1.00
C6       -0.13321   0.78749    0.97830   1.00
C6       -0.04355   0.78593    1.00970   1.00
C6       0.00658    0.90079    0.98030   1.00
C6       0.00952    0.59372    0.95744   1.00
C6       -0.00544   0.56114    0.99999   1.00
C6       -0.11519   0.56035    0.97872   1.00
C6       -0.14814   0.78488    0.95499   1.00
H2       -0.16058   0.73447    0.98335   1.00
C6       -0.17155   0.82192    0.98821   1.00
H2       -0.05827   0.73268    1.00719   1.00
C6       0.02765    0.81913    1.02037   1.00
C6       -0.09380   0.78470    1.02622   1.00
H2       0.00107    0.90412    0.96393   1.00
C6       -0.01269   0.95181    0.99020   1.00
C6       0.08510    0.93356    0.98453   1.00
C6       0.00304    0.63135    0.93842   1.00
C6       0.08387    0.60560    0.95710   1.00
H2       -0.02203   0.53949    0.95405   1.00
H2       0.05011    0.58666    0.99960   1.00
C6       -0.02385   0.57174    1.02208   1.00
C6       -0.03172   0.48317    0.99763   1.00
H2       -0.13290   0.54249    0.99411   1.00
C6       -0.14567   0.60669    0.97329   1.00
C6       -0.15234   0.49603    0.96474   1.00
H2       -0.13292   0.75245    0.94694   1.00
H2       -0.12095   0.83574    0.94823   1.00
H2       -0.20260   0.76368    0.95210   1.00
H2       -0.22583   0.78465    0.98973   1.00
H2       -0.15244   0.84243    1.00321   1.00
H2       -0.16820   0.86352    0.97897   1.00
H2       0.02637    0.78855    1.03339   1.00
H2       0.06732    0.82247    1.01033   1.00
H2       0.04273    0.87014    1.02596   1.00
H2       -0.14679   0.75374    1.02141   1.00
H2       -0.08925   0.76204    1.04037   1.00
H2       -0.08346   0.83618    1.02969   1.00
H2       -0.01985   0.94375    1.00655   1.00
H2       0.02651    1.00501    0.98765   1.00
H2       -0.05887   0.94683    0.98356   1.00
H2       0.09811    0.95077    1.00020   1.00
H2       0.10459    0.89939    0.98158   1.00
H2       0.11386    0.97821    0.97483   1.00
H2       0.04303    0.68470    0.93804   1.00
H2       0.00772    0.60781    0.92449   1.00
H2       -0.04603   0.62920    0.93779   1.00
H2       0.09463    0.58987    0.94252   1.00
H2       0.12214    0.65896    0.95921   1.00
H2       0.09169    0.57571    0.96865   1.00
H2       0.00082    0.55521    1.03318   1.00
H2       -0.00599   0.62550    1.02516   1.00
H2       -0.07867   0.54291    1.02485   1.00
H2       -0.01925   0.47117    0.98277   1.00
H2       -0.00780   0.46643    1.00893   1.00
H2       -0.08684   0.45291    0.99981   1.00
H2       -0.12940   0.63002    0.95836   1.00
H2       -0.20136   0.57832    0.97361   1.00
H2       -0.12922   0.64741    0.98436   1.00
H2       -0.20745   0.46956    0.96727   1.00
H2       -0.14333   0.50991    0.94870   1.00
H2       -0.13573   0.45928    0.96781   1.00
C4       0.13724    0.30196    0.45244   1.00
C4       0.16327    0.35456    0.46746   1.00
C3       0.16409    0.25805    0.44894   1.00
C3       0.22250    0.37254    0.47919   1.00
C3       0.08193    0.29297    0.43990   1.00
C3       0.12851    0.39152    0.47114   1.00
C2       0.08395    0.19905    0.42108   1.00
C2       0.21356    0.46261    0.49723   1.00
C3       0.13848    0.20827    0.43363   1.00
C3       0.24662    0.42464    0.49380   1.00
C3       0.05598    0.24160    0.42479   1.00
C3       0.15531    0.44576    0.48531   1.00
H1       0.20289    0.26080    0.45747   1.00
H1       0.25011    0.34862    0.47738   1.00
C5       0.05271    0.33516    0.44261   1.00
C5       0.06760    0.37465    0.46056   1.00
H1       0.16027    0.17832    0.43171   1.00
H1       0.28937    0.43502    0.50196   1.00
H1       0.01507    0.23450    0.41629   1.00
H1       0.13233    0.47456    0.48684   1.00
O3       0.00747    0.33411    0.42844   1.00
O3       0.02616    0.40004    0.46663   1.00
Si1      0.03514    0.38916    0.40985   1.00
Si1      -0.02999   0.36027    0.48445   1.00
C6       -0.04189   0.35352    0.39604   1.00
C6       0.05589    0.46913    0.42013   1.00
C6       0.10064    0.38826    0.39557   1.00
C6       -0.03303   0.28802    0.49577   1.00
C6       -0.00866   0.42376    0.50288   1.00
C6       -0.11045   0.33870    0.47445   1.00
C6       -0.07908   0.27437    0.39278   1.00
H2       -0.07493   0.36217    0.40619   1.00
C6       -0.04589   0.38389    0.37501   1.00
H2       0.02346    0.45448    0.43357   1.00
C6       0.13027    0.51669    0.42793   1.00
C6       0.03782    0.51678    0.40765   1.00
H2       0.07993    0.33377    0.39289   1.00
C6       0.11619    0.42253    0.37410   1.00
C6       0.17300    0.41551    0.40535   1.00
C6       -0.04499   0.22745    0.48169   1.00
C6       0.02381    0.29789    0.51121   1.00
H2       -0.07877   0.26811    0.50515   1.00
H2       0.03966    0.43205    0.50902   1.00
C6       0.00634    0.49507    0.49488   1.00
C6       -0.05806   0.40604    0.52135   1.00
H2       -0.11257   0.38566    0.47580   1.00
C6       -0.12142   0.32048    0.45144   1.00
C6       -0.17543   0.28228    0.48554   1.00
H2       -0.08878   0.24719    0.40718   1.00
H2       -0.04883   0.25989    0.38327   1.00
H2       -0.12866   0.25576    0.38550   1.00
H2       -0.09629   0.37855    0.37304   1.00
H2       -0.00840   0.43769    0.37346   1.00
H2       -0.03868   0.35726    0.36229   1.00
H2       0.13264    0.55696    0.43766   1.00
H2       0.14867    0.48914    0.43705   1.00
H2       0.16551    0.54132    0.41535   1.00
H2       -0.01634   0.49122    0.40390   1.00
H2       0.04846    0.56225    0.41632   1.00
H2       0.06755    0.53386    0.39366   1.00
H2       0.12617    0.47489    0.37502   1.00
H2       0.16047    0.42377    0.36699   1.00
H2       0.07422    0.39399    0.36367   1.00
H2       0.20569    0.47040    0.40330   1.00
H2       0.17131    0.40557    0.42147   1.00
H2       0.19890    0.39103    0.39823   1.00
H2       0.00228    0.23595    0.47475   1.00
H2       -0.06546   0.18016    0.49041   1.00
H2       -0.08139   0.21858    0.46964   1.00
H2       0.00977    0.24993    0.51896   1.00
H2       0.07259    0.31438    0.50385   1.00
H2       0.03130    0.33462    0.52305   1.00
H2       0.03014    0.53367    0.50676   1.00
H2       0.04181    0.51205    0.48210   1.00
H2       -0.04002   0.49448    0.49004   1.00
H2       -0.06984   0.35767    0.52833   1.00
H2       -0.03463   0.44520    0.53310   1.00
H2       -0.10579   0.40334    0.51688   1.00
H2       -0.11784   0.27531    0.44794   1.00
H2       -0.17093   0.31170    0.44620   1.00
H2       -0.08286   0.36257    0.44260   1.00
H2       -0.22143   0.28102    0.47986   1.00
H2       -0.18164   0.23170    0.48322   1.00
H2       -0.17348   0.29164    0.50181   1.00
C4       0.69504    0.82649    0.45151   1.00
C4       0.64397    0.80125    0.46699   1.00
C3       0.74650    0.80834    0.44994   1.00
C3       0.64297    0.76038    0.48348   1.00
C3       0.69584    0.87335    0.43688   1.00
C3       0.59053    0.81724    0.46609   1.00
C2       0.79856    0.88239    0.42036   1.00
C2       0.53978    0.75346    0.49795   1.00
C3       0.79707    0.83579    0.43488   1.00
C3       0.59197    0.73660    0.49843   1.00
C3       0.74653    0.89948    0.42157   1.00
C3       0.54130    0.79521    0.48178   1.00
H1       0.74860    0.77447    0.45966   1.00
H1       0.67949    0.74705    0.48518   1.00
C5       0.64582    0.89359    0.43759   1.00
C5       0.58676    0.85561    0.44967   1.00
H1       0.83328    0.82117    0.43458   1.00
H1       0.59349    0.70674    0.50990   1.00
H1       0.74533    0.93157    0.41084   1.00
H1       0.50596    0.81072    0.48160   1.00
O3       0.65331    0.94695    0.42570   1.00
O3       0.52889    0.86015    0.44634   1.00
Si1      0.69058    1.02417    0.43496   1.00
Si1      0.46608    0.79991    0.43348   1.00
C6       0.69483    1.06676    0.41211   1.00
C6       0.63339    1.02838    0.45224   1.00
C6       0.77278    1.05092    0.44471   1.00
C6       0.47401    0.72998    0.42515   1.00
C6       0.39686    0.77100    0.45025   1.00
C6       0.45023    0.83892    0.41270   1.00
C6       0.72203    1.04576    0.39316   1.00
H2       0.64109    1.04849    0.40893   1.00
C6       0.73084    1.14664    0.41125   1.00
H2       0.58423    0.98826    0.44661   1.00
C6       0.63663    1.01061    0.47499   1.00
C6       0.62789    1.09457    0.45278   1.00
H2       0.79593    1.03658    0.43254   1.00
C6       0.82093    1.12932    0.44813   1.00
C6       0.78063    1.01741    0.46466   1.00
C6       0.53645    0.74493    0.41151   1.00
C6       0.46609    0.67440    0.44080   1.00
H2       0.42950    0.70273    0.41536   1.00
H2       0.40861    0.74484    0.46211   1.00
C6       0.38874    0.82751    0.46146   1.00
C6       0.32473    0.71828    0.44191   1.00
H2       0.41937    0.85905    0.41909   1.00
C6       0.51354    0.90198    0.40331   1.00
C6       0.40837    0.79277    0.39441   1.00
H2       0.69253    0.99088    0.39043   1.00
H2       0.77543    1.05985    0.39512   1.00
H2       0.71814    1.07050    0.37939   1.00
H2       0.70510    1.16222    0.40024   1.00
H2       0.73049    1.16932    0.42574   1.00
H2       0.78391    1.16993    0.40635   1.00
H2       0.59040    1.00094    0.48305   1.00
H2       0.64015    0.96465    0.47663   1.00
H2       0.67992    1.05249    0.48274   1.00
H2       0.61544    1.10624    0.43786   1.00
H2       0.58712    1.08867    0.46296   1.00
H2       0.67534    1.13823    0.45810   1.00
H2       0.79637    1.15052    0.45755   1.00
H2       0.86878    1.14066    0.45550   1.00
H2       0.83594    1.15672    0.43382   1.00
H2       0.77778    1.04335    0.47826   1.00
H2       0.74248    0.96407    0.46625   1.00
H2       0.83031    1.02029    0.46486   1.00
H2       0.58185    0.75866    0.42051   1.00
H2       0.52577    0.69970    0.40271   1.00
H2       0.54862    0.78576    0.40069   1.00
H2       0.46264    0.63018    0.43297   1.00
H2       0.50922    0.69308    0.45112   1.00
H2       0.41967    0.65528    0.44980   1.00
H2       0.35216    0.80525    0.47392   1.00
H2       0.43693    0.86608    0.46814   1.00
H2       0.37065    0.85317    0.45132   1.00
H2       0.32505    0.67564    0.43431   1.00
H2       0.28793    0.69679    0.45434   1.00
H2       0.30589    0.74208    0.43128   1.00
H2       0.55005    0.88890    0.39701   1.00
H2       0.49890    0.92549    0.39133   1.00
H2       0.53957    0.94053    0.41489   1.00
H2       0.39313    0.82055    0.38408   1.00
H2       0.43820    0.77580    0.38569   1.00
H2       0.36164    0.74781    0.39943   1.00
C4       0.16843    -0.13296   0.45259   1.00
C4       0.19399    -0.15953   0.46776   1.00
C3       0.11930    -0.11293   0.45654   1.00
C3       0.16850    -0.17452   0.48790   1.00
C3       0.19221    -0.12681   0.43222   1.00
C3       0.24817    -0.17188   0.46270   1.00
C2       0.11680    -0.08288   0.42089   1.00
C2       0.24735    -0.21463   0.49742   1.00
C3       0.09388    -0.08894   0.44111   1.00
C3       0.19485    -0.20071   0.50239   1.00
C3       0.16687    -0.10129   0.41695   1.00
C3       0.27200    -0.20102   0.47727   1.00
H1       0.10071    -0.11496   0.47074   1.00
H1       0.12977    -0.16726   0.49262   1.00
C5       0.24134    -0.14592   0.42725   1.00
C5       0.27791    -0.15571   0.44312   1.00
H1       0.05803    -0.07567   0.44484   1.00
H1       0.17483    -0.21002   0.51678   1.00
H1       0.18579    -0.09539   0.40253   1.00
H1       0.30776    -0.21360   0.47304   1.00
O3       0.25561    -0.15074   0.40720   1.00
O3       0.33849    -0.15439   0.43913   1.00
Si1      0.21497    -0.22404   0.39553   1.00
Si1      0.41026    -0.08513   0.44417   1.00
C6       0.24614    -0.19358   0.37094   1.00
C6       0.24691    -0.27558   0.40485   1.00
C6       0.12543    -0.26129   0.39662   1.00
C6       0.40693    -0.01589   0.45535   1.00
C6       0.45114    -0.11388   0.46078   1.00
C6       0.45758    -0.05904   0.42148   1.00
C6       0.24360    -0.12858   0.36408   1.00
H2       0.30027    -0.17695   0.37246   1.00
C6       0.22071    -0.24266   0.35212   1.00
H2       0.29777    -0.23757   0.41000   1.00
C6       0.21116    -0.32202   0.42366   1.00
C6       0.25810    -0.32205   0.38959   1.00
H2       0.11826    -0.21854   0.39249   1.00
C6       0.08238    -0.31951   0.38106   1.00
C6       0.08748    -0.28951   0.41738   1.00
C6       0.36693    0.01373    0.44393   1.00
C6       0.38775    -0.01928   0.47832   1.00
H2       0.46026    0.02452    0.45486   1.00
H2       0.42114    -0.12594   0.47468   1.00
C6       0.44939    -0.18152   0.45461   1.00
C6       0.52648    -0.06202   0.46683   1.00
H2       0.48059    -0.09134   0.42044   1.00
C6       0.41579    -0.07281   0.40151   1.00
C6       0.51798    0.01621    0.42002   1.00
H2       0.27015    -0.08665   0.37481   1.00
H2       0.19104    -0.13926   0.36274   1.00
H2       0.26849    -0.11006   0.34939   1.00
H2       0.26192    -0.22668   0.34106   1.00
H2       0.20366    -0.29536   0.35610   1.00
H2       0.17869    -0.24190   0.34423   1.00
H2       0.24369    -0.33961   0.43048   1.00
H2       0.20096    -0.29495   0.43554   1.00
H2       0.16325    -0.36711   0.41939   1.00
H2       0.29146    -0.29238   0.37712   1.00
H2       0.28289    -0.34727   0.39696   1.00
H2       0.20965    -0.36181   0.38340   1.00
H2       0.09533    -0.35990   0.38180   1.00
H2       0.02753    -0.34271   0.38377   1.00
H2       0.09011    -0.30002   0.36565   1.00
H2       0.07436    -0.34230   0.41998   1.00
H2       0.11665    -0.26037   0.43040   1.00
H2       0.03975    -0.28837   0.41750   1.00
H2       0.31246    -0.01546   0.44710   1.00
H2       0.38459    0.06616    0.44876   1.00
H2       0.37400    0.01494    0.42758   1.00
H2       0.39726    0.03050    0.48363   1.00
H2       0.33417    -0.05538   0.48114   1.00
H2       0.41824    -0.03294   0.48795   1.00
H2       0.46542    -0.20126   0.46733   1.00
H2       0.39789    -0.22128   0.45049   1.00
H2       0.48309    -0.17402   0.44184   1.00
H2       0.53222    -0.01362   0.47197   1.00
H2       0.54283    -0.08223   0.47935   1.00
H2       0.56138    -0.05206   0.45418   1.00
H2       0.38794    -0.04509   0.40103   1.00
H2       0.44846    -0.05887   0.38812   1.00
H2       0.37894    -0.12680   0.40025   1.00
H2       0.54943    0.02298    0.40666   1.00
H2       0.49945    0.05232    0.41881   1.00
H2       0.55158    0.03024    0.43315   1.00
C4       0.30647    0.13259    0.04894   1.00
C4       0.35734    0.15793    0.03340   1.00
C3       0.27139    0.06357    0.05544   1.00
C3       0.37375    0.11570    0.02156   1.00
C3       0.28851    0.17814    0.05840   1.00
C3       0.39438    0.22942    0.02936   1.00
C2       0.20183    0.08460    0.07975   1.00
C2       0.45983    0.21291    0.00194   1.00
C3       0.22024    0.04011    0.07034   1.00
C3       0.42402    0.14247    0.00639   1.00
C3       0.23766    0.15374    0.07367   1.00
C3       0.44276    0.25499    0.01342   1.00
H1       0.28214    0.02837    0.04959   1.00
H1       0.34938    0.06421    0.02352   1.00
C5       0.32164    0.24781    0.05261   1.00
C5       0.38259    0.27498    0.04108   1.00
H1       0.19627    -0.01048   0.07432   1.00
H1       0.43414    0.10956    -0.00157   1.00
H1       0.22665    0.18739    0.08072   1.00
H1       0.46569    0.30566    0.00986   1.00
O3       0.29659    0.28876    0.05923   1.00
O3       0.42658    0.34461    0.04020   1.00
Si1      0.24287    0.29864    0.04513   1.00
Si1      0.49452    0.37835    0.05449   1.00
C6       0.22247    0.34348    0.06309   1.00
C6       0.28916    0.35145    0.02459   1.00
C6       0.17014    0.22082    0.03830   1.00
C6       0.51010    0.32350    0.06982   1.00
C6       0.56117    0.41990    0.03694   1.00
C6       0.49152    0.44102    0.06957   1.00
C6       0.20528    0.31234    0.08499   1.00
H2       0.27071    0.39132    0.06456   1.00
C6       0.16754    0.36452    0.05833   1.00
H2       0.34061    0.37972    0.03084   1.00
C6       0.29545    0.31708    0.00475   1.00
C6       0.27185    0.40679    0.01725   1.00
H2       0.15487    0.19393    0.05281   1.00
C6       0.10662    0.22411    0.03036   1.00
C6       0.17756    0.17172    0.02299   1.00
C6       0.45382    0.27650    0.08532   1.00
C6       0.53672    0.27846    0.05979   1.00
H2       0.55308    0.35952    0.07908   1.00
H2       0.56201    0.37824    0.02889   1.00
C6       0.55053    0.46266    0.02016   1.00
C6       0.63462    0.46606    0.04559   1.00
H2       0.51024    0.48517    0.05955   1.00
C6       0.41932    0.42593    0.07634   1.00
C6       0.53748    0.46643    0.08898   1.00
H2       0.24636    0.30567    0.09113   1.00
H2       0.15853    0.26268    0.08508   1.00
H2       0.19842    0.34576    0.09550   1.00
H2       0.18139    0.41297    0.06573   1.00
H2       0.16229    0.37081    0.04221   1.00
H2       0.11713    0.32739    0.06406   1.00
H2       0.33637    0.35449    -0.00490   1.00
H2       0.30797    0.27745    0.00792   1.00
H2       0.24835    0.29496    -0.00406   1.00
H2       0.27592    0.44070    0.02960   1.00
H2       0.30749    0.43940    0.00553   1.00
H2       0.22055    0.38329    0.01083   1.00
H2       0.12040    0.25981    0.01773   1.00
H2       0.06590    0.17433    0.02518   1.00
H2       0.08381    0.23915    0.04231   1.00
H2       0.17310    0.18388    0.00724   1.00
H2       0.22558    0.17241    0.02431   1.00
H2       0.13722    0.11907    0.02562   1.00
H2       0.41448    0.22996    0.07819   1.00
H2       0.47600    0.26104    0.09750   1.00
H2       0.42932    0.30208    0.09243   1.00
H2       0.55295    0.25506    0.07141   1.00
H2       0.49772    0.23712    0.05077   1.00
H2       0.58103    0.30826    0.05015   1.00
H2       0.58852    0.47662    0.00813   1.00
H2       0.50050    0.43348    0.01300   1.00
H2       0.55511    0.50961    0.02622   1.00
H2       0.64737    0.43952    0.05707   1.00
H2       0.67253    0.48086    0.03349   1.00
H2       0.64035    0.51281    0.05225   1.00
H2       0.39381    0.38078    0.08593   1.00
H2       0.42163    0.46888    0.08458   1.00
H2       0.38753    0.41736    0.06310   1.00
H2       0.53908    0.51200    0.09520   1.00
H2       0.51824    0.42758    0.10086   1.00
H2       0.59000    0.48023    0.08567   1.00
C4       0.82628    0.69454    0.04864   1.00
C4       0.80096    0.64354    0.03314   1.00
C3       0.80220    0.74094    0.05173   1.00
C3       0.75362    0.63790    0.01806   1.00
C3       0.87939    0.70062    0.06167   1.00
C3       0.82371    0.59506    0.03254   1.00
C2       0.88248    0.79841    0.07968   1.00
C2       0.75337    0.53993    0.00201   1.00
C3       0.82975    0.79170    0.06674   1.00
C3       0.72997    0.58714    0.00303   1.00
C3       0.90562    0.75136    0.07697   1.00
C3       0.80149    0.54616    0.01676   1.00
H1       0.76377    0.73906    0.04322   1.00
H1       0.73525    0.67074    0.01746   1.00
C5       0.90574    0.65581    0.05939   1.00
C5       0.86893    0.59595    0.04755   1.00
H1       0.81064    0.82414    0.06818   1.00
H1       0.69529    0.58514    -0.00738   1.00
H1       0.94238    0.75390    0.08657   1.00
H1       0.82158    0.51463    0.01578   1.00
O3       0.96414    0.66889    0.06961   1.00
O3       0.88088    0.54207    0.04967   1.00
Si1      1.03824    0.71233    0.05852   1.00
Si1      0.82832    0.47652    0.06331   1.00
C6       1.08886    0.72130    0.07994   1.00
C6       1.04388    0.65881    0.04014   1.00
C6       1.05457    0.79245    0.04942   1.00
C6       0.75670    0.47637    0.07405   1.00
C6       0.80075    0.40804    0.04631   1.00
C6       0.87677    0.46617    0.08242   1.00
C6       1.06938    0.74479    0.09998   1.00
H2       1.07645    0.66879    0.08273   1.00
C6       1.16877    0.76397    0.07882   1.00
H2       1.00883    0.60823    0.04617   1.00
C6       1.01844    0.65962    0.01814   1.00
C6       1.11354    0.66092    0.03733   1.00
H2       1.04055    0.81278    0.06243   1.00
C6       1.13040    0.84633    0.04431   1.00
C6       1.01298    0.79590    0.03082   1.00
C6       0.76950    0.53690    0.08827   1.00
C6       0.69495    0.46261    0.06016   1.00
H2       0.73580    0.43163    0.08388   1.00
H2       0.76874    0.41607    0.03559   1.00
C6       0.85752    0.40650    0.03314   1.00
C6       0.75578    0.33452    0.05505   1.00
H2       0.89932    0.43930    0.07484   1.00
C6       0.93858    0.53277    0.09084   1.00
C6       0.83823    0.42195    0.10138   1.00
H2       1.01594    0.71103    0.10397   1.00
H2       1.07780    0.79653    0.09854   1.00
H2       1.09960    0.74402    0.11280   1.00
H2       1.19099    0.74162    0.08879   1.00
H2       1.18839    0.76597    0.06363   1.00
H2       1.18881    0.81650    0.08389   1.00
H2       1.01101    0.61499    0.00960   1.00
H2       0.96953    0.65784    0.01809   1.00
H2       1.05536    0.70485    0.00984   1.00
H2       1.13135    0.65068    0.05156   1.00
H2       1.10886    0.62181    0.02665   1.00
H2       1.15257    0.71029    0.03145   1.00
H2       1.15254    0.82546    0.03379   1.00
H2       1.13500    0.89249    0.03747   1.00
H2       1.16153    0.86364    0.05793   1.00
H2       1.03652    0.79592    0.01637   1.00
H2       0.96084    0.75413    0.03030   1.00
H2       1.01058    0.84293    0.03142   1.00
H2       0.77640    0.58100    0.07968   1.00
H2       0.72586    0.52197    0.09832   1.00
H2       0.81398    0.55297    0.09791   1.00
H2       0.65131    0.45459    0.06935   1.00
H2       0.70689    0.50510    0.05005   1.00
H2       0.67739    0.41675    0.05099   1.00
H2       0.83463    0.36951    0.02082   1.00
H2       0.89076    0.45599    0.02610   1.00
H2       0.88922    0.39245    0.04206   1.00
H2       0.71331    0.33021    0.06402   1.00
H2       0.73371    0.29739    0.04271   1.00
H2       0.78573    0.31955    0.06450   1.00
H2       0.92276    0.56573    0.09820   1.00
H2       0.96817    0.52174    0.10172   1.00
H2       0.97278    0.56135    0.07851   1.00
H2       0.87189    0.41080    0.11048   1.00
H2       0.81976    0.44822    0.11117   1.00
H2       0.79482    0.37299    0.09703   1.00
C4       -0.13297   0.16842    0.04741   1.00
C4       -0.15954   0.19398    0.03224   1.00
C3       -0.11308   0.11917    0.04347   1.00
C3       -0.17468   0.16839    0.01211   1.00
C3       -0.12667   0.19231    0.06777   1.00
C3       -0.17174   0.24827    0.03728   1.00
C2       -0.08288   0.11680    0.07911   1.00
C2       -0.21463   0.24735    0.00258   1.00
C3       -0.08909   0.09376    0.05889   1.00
C3       -0.20086   0.19475    -0.00238   1.00
C3       -0.10115   0.16698    0.08304   1.00
C3       -0.20087   0.27210    0.02272   1.00
H1       -0.11522   0.10050    0.02927   1.00
H1       -0.16752   0.12958    0.00740   1.00
C5       -0.14563   0.24156    0.07273   1.00
C5       -0.15542   0.27811    0.05686   1.00
H1       -0.07593   0.05782    0.05517   1.00
H1       -0.21028   0.17465    -0.01675   1.00
H1       -0.09514   0.18598    0.09746   1.00
H1       -0.21335   0.30795    0.02694   1.00
O3       -0.15031   0.25596    0.09277   1.00
O3       -0.15396   0.33877    0.06082   1.00
Si1      -0.22355   0.21549    0.10448   1.00
Si1      -0.08465   0.41045    0.05574   1.00
C6       -0.19293   0.24676    0.12906   1.00
C6       -0.27503   0.24753    0.09517   1.00
C6       -0.26096   0.12593    0.10344   1.00
C6       -0.01554   0.40691    0.04454   1.00
C6       -0.11337   0.45134    0.03912   1.00
C6       -0.05837   0.45788    0.07841   1.00
C6       -0.12797   0.24411    0.13590   1.00
H2       -0.17622   0.30090    0.12751   1.00
C6       -0.24192   0.22150    0.14789   1.00
H2       -0.23697   0.29833    0.09000   1.00
C6       -0.32159   0.21174    0.07638   1.00
C6       -0.32134   0.25890    0.11044   1.00
H2       -0.21825   0.11869    0.10756   1.00
C6       -0.31913   0.08304    0.11903   1.00
C6       -0.28934   0.08789    0.08270   1.00
C6       0.01403    0.36686    0.05596   1.00
C6       -0.01909   0.38760    0.02157   1.00
H2       0.02493    0.46021    0.04500   1.00
H2       -0.12555   0.42126    0.02524   1.00
C6       -0.18091   0.44976    0.04532   1.00
C6       -0.06144   0.52662    0.03304   1.00
H2       -0.09058   0.48098    0.07945   1.00
C6       -0.07210   0.41618    0.09839   1.00
C6       0.01694    0.51819    0.07983   1.00
H2       -0.08608   0.27055    0.12514   1.00
H2       -0.13874   0.19154    0.13725   1.00
H2       -0.10934   0.26908    0.15057   1.00
H2       -0.22581   0.26278    0.15894   1.00
H2       -0.29462   0.20452    0.14394   1.00
H2       -0.24120   0.17948    0.15580   1.00
H2       -0.33914   0.24430    0.06957   1.00
H2       -0.29464   0.20141    0.06450   1.00
H2       -0.36671   0.16389    0.08069   1.00
H2       -0.29157   0.29230    0.12289   1.00
H2       -0.34652   0.28373    0.10307   1.00
H2       -0.36113   0.21052    0.11666   1.00
H2       -0.35945   0.09608    0.11830   1.00
H2       -0.34243   0.02817    0.11634   1.00
H2       -0.29956   0.09082    0.13442   1.00
H2       -0.34211   0.07486    0.08011   1.00
H2       -0.26023   0.11696    0.06966   1.00
H2       -0.28830   0.04011    0.08259   1.00
H2       -0.01527   0.31238    0.05282   1.00
H2       0.06641    0.38441    0.05111   1.00
H2       0.01533    0.37402    0.07231   1.00
H2       0.03063    0.39698    0.01625   1.00
H2       -0.05528   0.33402    0.01878   1.00
H2       -0.03273   0.41809    0.01194   1.00
H2       -0.20066   0.46578    0.03260   1.00
H2       -0.22071   0.39830    0.04947   1.00
H2       -0.17328   0.48355    0.05808   1.00
H2       -0.01310   0.53223    0.02788   1.00
H2       -0.08166   0.54296    0.02052   1.00
H2       -0.05135   0.56160    0.04568   1.00
H2       -0.04446   0.38824    0.09887   1.00
H2       -0.05803   0.44892    0.11177   1.00
H2       -0.12611   0.37940    0.09969   1.00
H2       0.02384    0.54973    0.09317   1.00
H2       0.05298    0.49958    0.08103   1.00
H2       0.03096    0.55173    0.06668   1.00
C4       0.53506    1.03117    0.88098   1.00
C4       0.50932    0.97856    0.86596   1.00
C3       0.60530    1.07161    0.88586   1.00
C3       0.55038    0.95700    0.85567   1.00
C3       0.48830    1.04380    0.89204   1.00
C3       0.43870    0.94536    0.86076   1.00
C2       0.58270    1.13428    0.91225   1.00
C2       0.45313    0.87072    0.83610   1.00
C3       0.62848    1.12148    0.90114   1.00
C3       0.52322    0.90501    0.84101   1.00
C3       0.51283    1.09522    0.90713   1.00
C3       0.41180    0.89112    0.84658   1.00
H1       0.64171    1.06618    0.87842   1.00
H1       0.60113    0.97812    0.85861   1.00
C5       0.41739    1.00519    0.88789   1.00
C5       0.39515    0.96596    0.86984   1.00
H1       0.67982    1.14882    0.90411   1.00
H1       0.55546    0.89195    0.83394   1.00
H1       0.47890    1.10500    0.91455   1.00
H1       0.36040    0.86498    0.84399   1.00
O3       0.37170    1.00948    0.90075   1.00
O3       0.33062    0.94435    0.86224   1.00
Si1      0.33713    0.95468    0.91924   1.00
Si1      0.32193    0.98643    0.84349   1.00
C6       0.29671    0.99451    0.93136   1.00
C6       0.27696    0.87611    0.90840   1.00
C6       0.39757    0.95109    0.93534   1.00
C6       0.39619    1.05614    0.83319   1.00
C6       0.28125    0.92364    0.82478   1.00
C6       0.26460    1.01292    0.85151   1.00
C6       0.34189    1.07338    0.93474   1.00
H2       0.25846    0.98840    0.92019   1.00
C6       0.25660    0.96571    0.95176   1.00
H2       0.26410    0.89238    0.89431   1.00
C6       0.30114    0.82504    0.90201   1.00
C6       0.20755    0.83159    0.91962   1.00
H2       0.43326    1.00503    0.93823   1.00
C6       0.37210    0.91717    0.95666   1.00
C6       0.44121    0.91970    0.92722   1.00
C6       0.44387    1.11543    0.84779   1.00
C6       0.44418    1.04253    0.81926   1.00
H2       0.37503    1.07844    0.82285   1.00
H2       0.32051    0.91222    0.81990   1.00
C6       0.22021    0.85397    0.83212   1.00
C6       0.25645    0.94401    0.80525   1.00
H2       0.21445    0.96783    0.84941   1.00
C6       0.26747    1.03143    0.87440   1.00
C6       0.26303    1.07172    0.83945   1.00
H2       0.36399    1.10011    0.92052   1.00
H2       0.38362    1.08529    0.94529   1.00
H2       0.31178    1.09483    0.94087   1.00
H2       0.21328    0.97440    0.95238   1.00
H2       0.23674    0.91129    0.95356   1.00
H2       0.28801    0.99097    0.96504   1.00
H2       0.26416    0.78600    0.89179   1.00
H2       0.34935    0.85021    0.89385   1.00
H2       0.30660    0.79895    0.91518   1.00
H2       0.18104    0.86003    0.92221   1.00
H2       0.17290    0.78698    0.91060   1.00
H2       0.21518    0.81317    0.93415   1.00
H2       0.32789    0.86603    0.95525   1.00
H2       0.41165    0.91293    0.96498   1.00
H2       0.35881    0.94768    0.96630   1.00
H2       0.41548    0.86455    0.92938   1.00
H2       0.45363    0.92925    0.91126   1.00
H2       0.48964    0.94152    0.93542   1.00
H2       0.47885    1.10400    0.85591   1.00
H2       0.47506    1.16234    0.83922   1.00
H2       0.41526    1.12663    0.85890   1.00
H2       0.48201    1.08965    0.81185   1.00
H2       0.47228    1.02330    0.82773   1.00
H2       0.41628    1.00653    0.80712   1.00
H2       0.20603    0.81502    0.82037   1.00
H2       0.23373    0.83524    0.84561   1.00
H2       0.17518    0.85782    0.83564   1.00
H2       0.29667    0.99136    0.79867   1.00
H2       0.24130    0.90455    0.79361   1.00
H2       0.21236    0.94998    0.80839   1.00
H2       0.31667    1.07472    0.87866   1.00
H2       0.22776    1.04339    0.87836   1.00
H2       0.25898    0.98826    0.88367   1.00
H2       0.21885    1.07619    0.84384   1.00
H2       0.30870    1.12089    0.84235   1.00
H2       0.25908    1.06243    0.82315   1.00
C4       -0.02467   0.50312    0.88291   1.00
C4       0.02631    0.52846    0.86740   1.00
C3       -0.02235   0.46727    0.90028   1.00
C3       0.08127    0.51514    0.86677   1.00
C3       -0.08194   0.51297    0.88094   1.00
C3       0.02283    0.56962    0.85157   1.00
C2       -0.13149   0.45053    0.91309   1.00
C2       0.12649    0.58028    0.83526   1.00
C3       -0.07445   0.44135    0.91490   1.00
C3       0.13036    0.54084    0.85126   1.00
C3       -0.13332   0.48754    0.89605   1.00
C3       0.07113    0.59259    0.83562   1.00
H1       0.01737    0.45914    0.90285   1.00
H1       0.08702    0.48602    0.87749   1.00
C5       -0.08736   0.54841    0.86394   1.00
C5       -0.02910   0.58719    0.85163   1.00
H1       -0.07025   0.41540    0.92707   1.00
H1       0.16931    0.53006    0.85168   1.00
H1       -0.17314   0.49663    0.89472   1.00
H1       0.06542    0.61830    0.82373   1.00
O3       -0.14754   0.54795    0.86035   1.00
O3       -0.02574   0.63738    0.83894   1.00
Si1      -0.20462   0.49062    0.84527   1.00
Si1      0.01796    0.71681    0.84618   1.00
C6       -0.27008   0.50949    0.85013   1.00
C6       -0.17370   0.51280    0.82026   1.00
C6       -0.22939   0.40620    0.85239   1.00
C6       0.06150    0.73506    0.86963   1.00
C6       0.07720    0.75575    0.82647   1.00
C6       -0.03789   0.74980    0.84589   1.00
C6       -0.28380   0.51695    0.87304   1.00
H2       -0.24900   0.56057    0.84371   1.00
C6       -0.34252   0.46620    0.84028   1.00
H2       -0.13924   0.56767    0.82157   1.00
C6       -0.12979   0.48322    0.81136   1.00
C6       -0.22507   0.50372    0.80301   1.00
H2       -0.23864   0.40659    0.86864   1.00
C6       -0.29735   0.34770    0.84315   1.00
C6       -0.17748   0.37970    0.85000   1.00
C6       0.01899    0.70009    0.88914   1.00
C6       0.12854    0.73128    0.87136   1.00
H2       0.07917    0.78927    0.87153   1.00
H2       0.11166    0.73550    0.82820   1.00
C6       0.04832    0.73639    0.80439   1.00
C6       0.12271    0.83519    0.82700   1.00
H2       -0.03946   0.76223    0.82997   1.00
C6       -0.11356   0.69916    0.85165   1.00
C6       -0.01686   0.81687    0.85805   1.00
H2       -0.23750   0.55497    0.88070   1.00
H2       -0.30307   0.46860    0.88111   1.00
H2       -0.32122   0.53371    0.87467   1.00
H2       -0.36459   0.49862    0.83724   1.00
H2       -0.34138   0.44273    0.82602   1.00
H2       -0.37824   0.42549    0.85028   1.00
H2       -0.10217   0.51157    0.79784   1.00
H2       -0.09139   0.48708    0.82205   1.00
H2       -0.16170   0.42990    0.80697   1.00
H2       -0.25183   0.53142    0.80640   1.00
H2       -0.19873   0.52411    0.78859   1.00
H2       -0.26245   0.44993    0.80065   1.00
H2       -0.29699   0.35080    0.82662   1.00
H2       -0.30611   0.29710    0.84726   1.00
H2       -0.34137   0.34943    0.84894   1.00
H2       -0.17965   0.35881    0.83492   1.00
H2       -0.12497   0.41863    0.85264   1.00
H2       -0.18935   0.33885    0.86092   1.00
H2       0.01096    0.64883    0.89111   1.00
H2       0.04574    0.72919    0.90265   1.00
H2       -0.03061   0.69685    0.88895   1.00
H2       0.15433    0.75306    0.88575   1.00
H2       0.11874    0.67912    0.87083   1.00
H2       0.16505    0.76034    0.85945   1.00
H2       0.09001    0.75352    0.79344   1.00
H2       0.01669    0.68119    0.80258   1.00
H2       0.01779    0.75955    0.80024   1.00
H2       0.14679    0.85333    0.84177   1.00
H2       0.16380    0.85238    0.81582   1.00
H2       0.09318    0.85997    0.82341   1.00
H2       -0.11865   0.68068    0.86718   1.00
H2       -0.14549   0.72241    0.84994   1.00
H2       -0.13427   0.65526    0.84163   1.00
H2       -0.04991   0.83759    0.85419   1.00
H2       -0.02073   0.80778    0.87441   1.00
H2       0.03517    0.85650    0.85460   1.00
C4       0.49786    0.47296    0.88284   1.00
C4       0.47237    0.49836    0.86730   1.00
C3       0.54351    0.51452    0.89827   1.00
C3       0.49473    0.56866    0.86455   1.00
C3       0.47773    0.40232    0.88292   1.00
C3       0.42154    0.45138    0.85369   1.00
C2       0.54975    0.41835    0.91312   1.00
C2       0.41944    0.54582    0.83523   1.00
C3       0.56907    0.48810    0.91292   1.00
C3       0.46856    0.59171    0.84908   1.00
C3       0.50308    0.37641    0.89806   1.00
C3       0.39797    0.47590    0.83767   1.00
H1       0.55935    0.56515    0.89935   1.00
H1       0.53099    0.60521    0.87362   1.00
C5       0.43218    0.35796    0.86792   1.00
C5       0.39490    0.38027    0.85600   1.00
H1       0.60234    0.52070    0.92362   1.00
H1       0.48620    0.64308    0.84792   1.00
H1       0.48672    0.32528    0.89827   1.00
H1       0.36484    0.44200    0.82728   1.00
O3       0.42186    0.29288    0.86598   1.00
O3       0.33688    0.33367    0.84574   1.00
Si1      0.46749    0.27780    0.84986   1.00
Si1      0.26245    0.31152    0.85552   1.00
C6       0.43939    0.19298    0.85736   1.00
C6       0.43828    0.28097    0.82532   1.00
C6       0.55618    0.33025    0.85356   1.00
C6       0.25966    0.35064    0.87843   1.00
C6       0.22205    0.33182    0.83625   1.00
C6       0.21870    0.22219    0.85832   1.00
C6       0.43896    0.18062    0.88077   1.00
H2       0.38580    0.16692    0.85286   1.00
C6       0.46997    0.15096    0.84751   1.00
H2       0.38597    0.26877    0.82830   1.00
C6       0.47270    0.35090    0.81390   1.00
C6       0.43273    0.22768    0.80920   1.00
H2       0.56114    0.32641    0.86993   1.00
C6       0.60383    0.30693    0.84347   1.00
C6       0.59130    0.40846    0.84852   1.00
C6       0.29834    0.34449    0.89723   1.00
C6       0.27476    0.42613    0.87813   1.00
H2       0.20570    0.32137    0.88242   1.00
H2       0.24958    0.38745    0.83605   1.00
C6       0.22886    0.30986    0.81424   1.00
C6       0.14507    0.30895    0.83932   1.00
H2       0.19860    0.20310    0.84320   1.00
C6       0.26311    0.18946    0.86366   1.00
C6       0.15593    0.18895    0.87300   1.00
H2       0.40902    0.19869    0.88892   1.00
H2       0.49064    0.20680    0.88698   1.00
H2       0.41609    0.12630    0.88420   1.00
H2       0.43090    0.09706    0.84664   1.00
H2       0.48905    0.16772    0.83224   1.00
H2       0.51181    0.15349    0.85644   1.00
H2       0.44125    0.34950    0.80112   1.00
H2       0.47903    0.39250    0.82362   1.00
H2       0.52247    0.36322    0.80787   1.00
H2       0.40064    0.17556    0.81461   1.00
H2       0.40914    0.23173    0.79518   1.00
H2       0.48299    0.23538    0.80531   1.00
H2       0.59366    0.29805    0.82723   1.00
H2       0.65785    0.34478    0.84536   1.00
H2       0.59761    0.26075    0.85048   1.00
H2       0.60680    0.41907    0.83265   1.00
H2       0.55925    0.43037    0.85156   1.00
H2       0.63736    0.43688    0.85770   1.00
H2       0.35229    0.38288    0.89695   1.00
H2       0.27728    0.35206    0.91127   1.00
H2       0.29402    0.29450    0.89824   1.00
H2       0.26169    0.43961    0.89272   1.00
H2       0.32833    0.46245    0.87539   1.00
H2       0.24459    0.43417    0.86673   1.00
H2       0.21255    0.33454    0.80308   1.00
H2       0.28174    0.32518    0.81067   1.00
H2       0.19784    0.25485    0.81207   1.00
H2       0.13575    0.32405    0.85416   1.00
H2       0.12851    0.33286    0.82796   1.00
H2       0.11272    0.25378    0.83775   1.00
H2       0.28843    0.20676    0.87830   1.00
H2       0.23280    0.13384    0.86395   1.00
H2       0.30226    0.20302    0.85221   1.00
H2       0.12723    0.13357    0.87106   1.00
H2       0.17182    0.19942    0.88886   1.00
H2       0.12050    0.20732    0.87005   1.00
C4       0.36344    0.20222    0.28536   1.00
C4       0.31086    0.17610    0.30039   1.00
C3       0.38845    0.26664    0.27585   1.00
C3       0.27382    0.20889    0.30605   1.00
C3       0.39228    0.16165    0.27916   1.00
C3       0.29399    0.11383    0.31047   1.00
C2       0.46750    0.24994    0.25437   1.00
C2       0.20418    0.11921    0.33060   1.00
C3       0.43876    0.28972    0.26070   1.00
C3       0.22239    0.18159    0.32087   1.00
C3       0.44390    0.18640    0.26412   1.00
C3       0.24002    0.08571    0.32473   1.00
H1       0.37102    0.29878    0.27969   1.00
H1       0.28282    0.25335    0.29948   1.00
C5       0.36958    0.09676    0.28807   1.00
C5       0.33056    0.07960    0.30617   1.00
H1       0.45450    0.33654    0.25425   1.00
H1       0.19772    0.20784    0.32447   1.00
H1       0.46544    0.15757    0.26023   1.00
H1       0.22566    0.03896    0.33086   1.00
O3       0.38900    0.05322    0.27976   1.00
O3       0.32457    0.02735    0.31843   1.00
Si1      0.34000    -0.00363   0.26310   1.00
Si1      0.37201    0.04639    0.33870   1.00
C6       0.39737    -0.03157   0.25622   1.00
C6       0.26901    -0.06775   0.27624   1.00
C6       0.32001    0.03178    0.24216   1.00
C6       0.42687    0.13346    0.34447   1.00
C6       0.31208    0.00791    0.35826   1.00
C6       0.41905    0.00386    0.33681   1.00
C6       0.47231    0.02599    0.25161   1.00
H2       0.40059    -0.05587   0.27015   1.00
C6       0.37912    -0.08608   0.23905   1.00
H2       0.28942    -0.06315   0.29151   1.00
C6       0.20445    -0.06003   0.27863   1.00
C6       0.24086    -0.14387   0.26997   1.00
H2       0.36993    0.07451    0.23803   1.00
C6       0.29188    -0.01343   0.22265   1.00
C6       0.27150    0.06209    0.24517   1.00
C6       0.48044    0.17922    0.32816   1.00
C6       0.39628    0.17668    0.35331   1.00
H2       0.45680    0.13078    0.35705   1.00
H2       0.28742    0.03868    0.35917   1.00
C6       0.25311    -0.06668   0.35419   1.00
C6       0.33999    0.00811    0.37997   1.00
H2       0.38329    -0.04808   0.34173   1.00
C6       0.44116    -0.00396   0.31504   1.00
C6       0.48371    0.02904    0.35053   1.00
H2       0.49415    0.06144    0.26431   1.00
H2       0.47446    0.05525    0.23817   1.00
H2       0.50560    0.00465    0.24901   1.00
H2       0.40150    -0.11796   0.24250   1.00
H2       0.32452    -0.11974   0.23725   1.00
H2       0.39942    -0.06272   0.22431   1.00
H2       0.17075    -0.09413   0.29044   1.00
H2       0.21756    -0.00867   0.28314   1.00
H2       0.17517    -0.07284   0.26456   1.00
H2       0.28051    -0.15778   0.27071   1.00
H2       0.20040    -0.17869   0.28025   1.00
H2       0.21963    -0.15355   0.25466   1.00
H2       0.24772    -0.06303   0.22618   1.00
H2       0.27648    0.01068    0.21102   1.00
H2       0.33071    -0.02114   0.21549   1.00
H2       0.21786    0.02335    0.24351   1.00
H2       0.27688    0.08581    0.25983   1.00
H2       0.28250    0.10131    0.23374   1.00
H2       0.45834    0.19765    0.31688   1.00
H2       0.52267    0.22413    0.33527   1.00
H2       0.50239    0.15247    0.32028   1.00
H2       0.43693    0.22609    0.35873   1.00
H2       0.36755    0.18704    0.34204   1.00
H2       0.36312    0.15197    0.36629   1.00
H2       0.21270    -0.08176   0.36550   1.00
H2       0.22970    -0.07110   0.33936   1.00
H2       0.27089    -0.10341   0.35483   1.00
H2       0.38027    0.05891    0.38438   1.00
H2       0.29930    -0.00796   0.39124   1.00
H2       0.35982    -0.02694   0.38097   1.00
H2       0.47541    0.04519    0.30806   1.00
H2       0.46647    -0.03428   0.31507   1.00
H2       0.39655    -0.03033   0.30540   1.00
H2       0.50204    -0.00741   0.35029   1.00
H2       0.52541    0.07816    0.34538   1.00
H2       0.47286    0.03431    0.36633   1.00
C4       0.83477    0.63466    0.28594   1.00
C4       0.86208    0.68712    0.30100   1.00
C3       0.84230    0.57609    0.28653   1.00
C3       0.90481    0.68937    0.31711   1.00
C3       0.79870    0.64110    0.26912   1.00
C3       0.84602    0.74052    0.30011   1.00
C2       0.78095    0.53254    0.25437   1.00
C2       0.91654    0.79578    0.33060   1.00
C3       0.81649    0.52661    0.27113   1.00
C3       0.93079    0.74184    0.33162   1.00
C3       0.77195    0.58998    0.25393   1.00
C3       0.87509    0.79446    0.31437   1.00
H1       0.86655    0.56754    0.29820   1.00
H1       0.91866    0.65320    0.31870   1.00
C5       0.78934    0.69841    0.26762   1.00
C5       0.80160    0.74022    0.28492   1.00
H1       0.82392    0.48558    0.27229   1.00
H1       0.96094    0.74052    0.34303   1.00
H1       0.74456    0.59434    0.24225   1.00
H1       0.86663    0.83454    0.31276   1.00
O3       0.76481    0.71025    0.24987   1.00
O3       0.77477    0.78315    0.28612   1.00
Si1      0.81805    0.76045    0.23263   1.00
Si1      0.70585    0.75936    0.29949   1.00
C6       0.75719    0.74396    0.21349   1.00
C6       0.85424    0.84473    0.24170   1.00
C6       0.87740    0.73599    0.22489   1.00
C6       0.67042    0.68079    0.31257   1.00
C6       0.73097    0.82604    0.31704   1.00
C6       0.64460    0.76030    0.28323   1.00
C6       0.70388    0.66693    0.20964   1.00
H2       0.72802    0.76588    0.21995   1.00
C6       0.77964    0.77657    0.19184   1.00
H2       0.81509    0.84075    0.25218   1.00
C6       0.92148    0.87467    0.25441   1.00
C6       0.86598    0.90249    0.22641   1.00
H2       0.84470    0.68130    0.22227   1.00
C6       0.91629    0.76648    0.20448   1.00
C6       0.93466    0.74406    0.24001   1.00
C6       0.65032    0.61488    0.29997   1.00
C6       0.70589    0.67522    0.33231   1.00
H2       0.62226    0.67474    0.31810   1.00
H2       0.76604    0.82027    0.32708   1.00
C6       0.77276    0.90007    0.30828   1.00
C6       0.67436    0.82486    0.33090   1.00
H2       0.65835    0.81387    0.28274   1.00
C6       0.64629    0.74040    0.26069   1.00
C6       0.56798    0.71983    0.28989   1.00
H2       0.67689    0.64154    0.22354   1.00
H2       0.72847    0.63947    0.20373   1.00
H2       0.66508    0.66140    0.19872   1.00
H2       0.74107    0.78688    0.18551   1.00
H2       0.82778    0.82440    0.19195   1.00
H2       0.78486    0.74261    0.18115   1.00
H2       0.93037    0.92037    0.26262   1.00
H2       0.91936    0.83891    0.26581   1.00
H2       0.96562    0.88905    0.24467   1.00
H2       0.81879    0.89113    0.21871   1.00
H2       0.88367    0.95117    0.23419   1.00
H2       0.90432    0.91002    0.21507   1.00
H2       0.94138    0.82208    0.20450   1.00
H2       0.95526    0.75237    0.20163   1.00
H2       0.88203    0.74687    0.19156   1.00
H2       0.97991    0.79464    0.23916   1.00
H2       0.91850    0.73561    0.25572   1.00
H2       0.95079    0.70713    0.23635   1.00
H2       0.69394    0.60794    0.29733   1.00
H2       0.61222    0.56970    0.30811   1.00
H2       0.62825    0.61530    0.28535   1.00
H2       0.67310    0.62704    0.34012   1.00
H2       0.75373    0.67669    0.32911   1.00
H2       0.71592    0.71554    0.34315   1.00
H2       0.79576    0.93714    0.32059   1.00
H2       0.81456    0.90576    0.29863   1.00
H2       0.74093    0.91402    0.29939   1.00
H2       0.64369    0.77538    0.33819   1.00
H2       0.69735    0.86266    0.34303   1.00
H2       0.64049    0.83694    0.32233   1.00
H2       0.63578    0.68807    0.25918   1.00
H2       0.60950    0.74614    0.25141   1.00
H2       0.69634    0.77378    0.25427   1.00
H2       0.53679    0.73280    0.28025   1.00
H2       0.54736    0.66480    0.28880   1.00
H2       0.56117    0.73185    0.30542   1.00
C4       0.79968    0.16496    0.28593   1.00
C4       0.82489    0.13769    0.30098   1.00
C3       0.73244    0.15459    0.28600   1.00
C3       0.78366    0.09231    0.31651   1.00
C3       0.84337    0.20400    0.26965   1.00
C3       0.89520    0.15657    0.30068   1.00
C2       0.75149    0.21898    0.25438   1.00
C2       0.87936    0.08353    0.33059   1.00
C3       0.70884    0.18050    0.27061   1.00
C3       0.81025    0.06646    0.33103   1.00
C3       0.81900    0.23078    0.25447   1.00
C3       0.92031    0.12766    0.31492   1.00
H1       0.69871    0.12811    0.29727   1.00
H1       0.73302    0.07637    0.31766   1.00
C5       0.91121    0.21629    0.26868   1.00
C5       0.93999    0.20365    0.28610   1.00
H1       0.65955    0.17095    0.27138   1.00
H1       0.77817    0.03431    0.34202   1.00
H1       0.85151    0.26028    0.24320   1.00
H1       0.96968    0.13827    0.31371   1.00
O3       0.94926    0.24390    0.25136   1.00
O3       1.00988    0.23283    0.28796   1.00
Si1      0.95053    0.19377    0.23377   1.00
Si1      1.05132    0.30059    0.30209   1.00
C6       0.99525    0.25736    0.21535   1.00
C6       1.00027    0.15954    0.24294   1.00
C6       0.86850    0.13297    0.22507   1.00
C6       1.00416    0.33175    0.31508   1.00
C6       1.09291    0.27590    0.31975   1.00
C6       1.11391    0.36503    0.28667   1.00
C6       0.96905    0.30880    0.21167   1.00
H2       1.04539    0.28738    0.22235   1.00
C6       1.00911    0.23838    0.19364   1.00
H2       1.03321    0.19812    0.25391   1.00
C6       0.96377    0.09076    0.25495   1.00
C6       1.04953    0.15188    0.22792   1.00
H2       0.84486    0.16421    0.22250   1.00
C6       0.86401    0.09696    0.20436   1.00
C6       0.81915    0.07313    0.23946   1.00
C6       0.95790    0.35079    0.30229   1.00
C6       0.96162    0.29303    0.33428   1.00
H2       1.04436    0.38002    0.32120   1.00
H2       1.05165    0.23868    0.32927   1.00
C6       1.12873    0.23754    0.31096   1.00
C6       1.14538    0.33206    0.33436   1.00
H2       1.15526    0.35344    0.28637   1.00
C6       1.09450    0.36501    0.26398   1.00
C6       1.14660    0.44069    0.29407   1.00
H2       0.96788    0.33362    0.22575   1.00
H2       0.91767    0.28314    0.20525   1.00
H2       1.00250    0.34941    0.20125   1.00
H2       1.05802    0.27895    0.18791   1.00
H2       1.01097    0.19135    0.19344   1.00
H2       0.97055    0.23276    0.18265   1.00
H2       1.00084    0.08278    0.26336   1.00
H2       0.92802    0.09002    0.26611   1.00
H2       0.93649    0.04745    0.24473   1.00
H2       1.08485    0.20043    0.22078   1.00
H2       1.08110    0.13510    0.23580   1.00
H2       1.02109    0.11437    0.21613   1.00
H2       0.89631    0.07383    0.20444   1.00
H2       0.81189    0.05688    0.20089   1.00
H2       0.87889    0.13255    0.19178   1.00
H2       0.82674    0.02928    0.23835   1.00
H2       0.82450    0.08745    0.25531   1.00
H2       0.76610    0.05543    0.23532   1.00
H2       0.90854    0.30624    0.29901   1.00
H2       0.94801    0.38673    0.31061   1.00
H2       0.98153    0.37502    0.28798   1.00
H2       0.94351    0.32345    0.34219   1.00
H2       0.91679    0.24461    0.33046   1.00
H2       0.99178    0.28335    0.34526   1.00
H2       1.14275    0.21431    0.32321   1.00
H2       1.09485    0.19623    0.30080   1.00
H2       1.17506    0.27168    0.30261   1.00
H2       1.12395    0.36032    0.34171   1.00
H2       1.16017    0.30887    0.34644   1.00
H2       1.19176    0.36816    0.32633   1.00
H2       1.05148    0.37358    0.26225   1.00
H2       1.13732    0.40389    0.25524   1.00
H2       1.08048    0.31614    0.25713   1.00
H2       1.19137    0.47422    0.28495   1.00
H2       1.11064    0.45942    0.29287   1.00
H2       1.16375    0.44640    0.30976   1.00
C4       0.80169    0.64141    0.78392   1.00
C4       0.82641    0.69224    0.79946   1.00
C3       0.74807    0.62975    0.77042   1.00
C3       0.79595    0.73218    0.80426   1.00
C3       0.83117    0.59884    0.78181   1.00
C3       0.88492    0.70446    0.81094   1.00
C2       0.75234    0.53533    0.75353   1.00
C2       0.87851    0.79299    0.83144   1.00
C3       0.72378    0.57795    0.75572   1.00
C3       0.82164    0.78162    0.81967   1.00
C3       0.80680    0.54769    0.76663   1.00
C3       0.90821    0.75245    0.82698   1.00
H1       0.72524    0.65872    0.77082   1.00
H1       0.75397    0.72624    0.79678   1.00
C5       0.88499    0.60782    0.79481   1.00
C5       0.91953    0.66837    0.80649   1.00
H1       0.68453    0.57158    0.74647   1.00
H1       0.79789    0.80939    0.82235   1.00
H1       0.82971    0.51880    0.76493   1.00
H1       0.94743    0.75749    0.83589   1.00
O3       0.90546    0.55985    0.79502   1.00
O3       0.98325    0.68856    0.81452   1.00
Si1      0.87256    0.49772    0.81150   1.00
Si1      1.05048    0.74793    0.80293   1.00
C6       0.90878    0.45061    0.80155   1.00
C6       0.90753    0.53263    0.83540   1.00
C6       0.78261    0.45019    0.81069   1.00
C6       1.03829    0.78576    0.78106   1.00
C6       1.09087    0.81022    0.82179   1.00
C6       1.10330    0.71363    0.79724   1.00
C6       0.90250    0.43916    0.77802   1.00
H2       0.96307    0.48451    0.80442   1.00
C6       0.89149    0.37997    0.81090   1.00
H2       0.95568    0.57753    0.83120   1.00
C6       0.86942    0.55956    0.84901   1.00
C6       0.92703    0.49066    0.85004   1.00
H2       0.77269    0.44090    0.79445   1.00
C6       0.74698    0.37824    0.82103   1.00
C6       0.74020    0.48371    0.81817   1.00
C6       0.99735    0.73817    0.76296   1.00
C6       1.01265    0.83812    0.78340   1.00
H2       1.09028    0.81690    0.77542   1.00
H2       1.05715    0.83122    0.82379   1.00
C6       1.09636    0.78363    0.84324   1.00
C6       1.16301    0.87187    0.81679   1.00
H2       1.13011    0.71827    0.81144   1.00
C6       1.06641    0.63615    0.79198   1.00
C6       1.15996    0.75029    0.78074   1.00
H2       0.92368    0.48742    0.76981   1.00
H2       0.84929    0.40736    0.77341   1.00
H2       0.93061    0.41425    0.77292   1.00
H2       0.93577    0.37293    0.80978   1.00
H2       0.87719    0.37519    0.82680   1.00
H2       0.84996    0.33717    0.80286   1.00
H2       0.90281    0.59237    0.86109   1.00
H2       0.85346    0.59027    0.84045   1.00
H2       0.82468    0.51759    0.85619   1.00
H2       0.96239    0.47757    0.84286   1.00
H2       0.95288    0.52003    0.86362   1.00
H2       0.88178    0.44390    0.85501   1.00
H2       0.76359    0.38155    0.83675   1.00
H2       0.69138    0.35465    0.82103   1.00
H2       0.75741    0.34277    0.81288   1.00
H2       0.73034    0.47719    0.83446   1.00
H2       0.76455    0.53786    0.81509   1.00
H2       0.69061    0.45988    0.81058   1.00
H2       0.94253    0.71522    0.76512   1.00
H2       1.01000    0.76720    0.74881   1.00
H2       1.00888    0.69738    0.76070   1.00
H2       1.01693    0.86396    0.76899   1.00
H2       0.95941    0.81377    0.78796   1.00
H2       1.04285    0.87809    0.79435   1.00
H2       1.11127    0.82385    0.85460   1.00
H2       1.04740    0.74096    0.84811   1.00
H2       1.13401    0.76699    0.84353   1.00
H2       1.16354    0.89513    0.80225   1.00
H2       1.17834    0.91166    0.82832   1.00
H2       1.20166    0.85649    0.81646   1.00
H2       1.03535    0.62430    0.77833   1.00
H2       1.10261    0.61813    0.78984   1.00
H2       1.03307    0.60685    0.80439   1.00
H2       1.19549    0.73082    0.78084   1.00
H2       1.13806    0.74229    0.76554   1.00
H2       1.19015    0.80503    0.78345   1.00
C4       0.36117    0.16873    0.78471   1.00
C4       0.30890    0.14126    0.79983   1.00
C3       0.36198    0.20968    0.76829   1.00
C3       0.24916    0.14677    0.79901   1.00
C3       0.41540    0.15389    0.78576   1.00
C3       0.31622    0.10637    0.81682   1.00
C2       0.46690    0.21952    0.75421   1.00
C2       0.20478    0.08299    0.83076   1.00
C3       0.41314    0.23407    0.75339   1.00
C3       0.19882    0.11901    0.81414   1.00
C3       0.46723    0.18005    0.77078   1.00
C3       0.26353    0.07625    0.83145   1.00
H1       0.32554    0.22317    0.76671   1.00
H1       0.24026    0.17074    0.78733   1.00
C5       0.41765    0.11326    0.80179   1.00
C5       0.37569    0.10114    0.81905   1.00
H1       0.41080    0.26304    0.74178   1.00
H1       0.15698    0.12507    0.81284   1.00
H1       0.50681    0.17056    0.77204   1.00
H1       0.26753    0.04772    0.84282   1.00
O3       0.46314    0.08969    0.80092   1.00
O3       0.39003    0.07991    0.83712   1.00
Si1      0.43917    0.01444    0.79141   1.00
Si1      0.42915    0.13595    0.85501   1.00
C6       0.52024    0.02110    0.79129   1.00
C6       0.38449    -0.04659   0.80920   1.00
C6       0.40574    0.00367    0.76663   1.00
C6       0.44871    0.22091    0.85070   1.00
C6       0.37298    0.10202    0.87564   1.00
C6       0.50383    0.13375    0.86101   1.00
C6       0.57998    0.08892    0.78235   1.00
H2       0.53130    0.02260    0.80746   1.00
C6       0.53050    -0.03731   0.78226   1.00
H2       0.40106    -0.01800   0.82338   1.00
C6       0.30620    -0.07326   0.80767   1.00
C6       0.39045    -0.11180   0.81267   1.00
H2       0.44376    0.05035    0.75910   1.00
C6       0.40096    -0.05681   0.75379   1.00
C6       0.33486    -0.00088   0.76325   1.00
C6       0.49314    0.25903    0.83179   1.00
C6       0.39043    0.23903    0.85164   1.00
H2       0.48045    0.24752    0.86380   1.00
H2       0.32980    0.10802    0.87127   1.00
C6       0.34225    0.02389    0.87964   1.00
C6       0.39827    0.13840    0.89661   1.00
H2       0.48617    0.08987    0.87109   1.00
C6       0.53944    0.11888    0.84310   1.00
C6       0.56171    0.19577    0.87280   1.00
H2       0.58425    0.13363    0.79003   1.00
H2       0.57256    0.09360    0.76617   1.00
H2       0.62904    0.09120    0.78425   1.00
H2       0.57027    -0.04078   0.79068   1.00
H2       0.48459    -0.08707   0.78294   1.00
H2       0.54706    -0.02794   0.76645   1.00
H2       0.28030    -0.09877   0.82172   1.00
H2       0.29536    -0.03204   0.80535   1.00
H2       0.28303    -0.11003   0.79535   1.00
H2       0.44224    -0.09855   0.81688   1.00
H2       0.35762    -0.14279   0.82513   1.00
H2       0.37538    -0.14381   0.79912   1.00
H2       0.37299    -0.10508   0.76194   1.00
H2       0.37536    -0.06244   0.73925   1.00
H2       0.45125    -0.04829   0.74991   1.00
H2       0.29241    -0.05296   0.76479   1.00
H2       0.32527    0.03042    0.77365   1.00
H2       0.33220    0.01621    0.74793   1.00
H2       0.46246    0.24697    0.81806   1.00
H2       0.51794    0.31424    0.83391   1.00
H2       0.53339    0.24698    0.82913   1.00
H2       0.41177    0.29433    0.85155   1.00
H2       0.35600    0.21884    0.83874   1.00
H2       0.36032    0.22042    0.86549   1.00
H2       0.29976    0.00544    0.89035   1.00
H2       0.32203    -0.00572   0.86572   1.00
H2       0.37992    0.01240    0.88595   1.00
H2       0.41885    0.19331    0.89539   1.00
H2       0.35595    0.11919    0.90741   1.00
H2       0.43738    0.12931    0.90311   1.00
H2       0.55733    0.15829    0.83145   1.00
H2       0.58286    0.11441    0.84829   1.00
H2       0.50385    0.07068    0.83603   1.00
H2       0.60013    0.18383    0.87829   1.00
H2       0.58758    0.24085    0.86312   1.00
H2       0.54201    0.20902    0.88607   1.00
C4       0.83096    0.19268    0.78488   1.00
C4       0.85837    0.16771    0.79997   1.00
C3       0.78302    0.15060    0.76999   1.00
C3       0.84538    0.09953    0.80053   1.00
C3       0.85316    0.26379    0.78431   1.00
C3       0.90108    0.21286    0.81547   1.00
C2       0.78054    0.24762    0.75426   1.00
C2       0.91695    0.12153    0.83071   1.00
C3       0.75877    0.17732    0.75502   1.00
C3       0.87332    0.07688    0.81558   1.00
C3       0.82712    0.28955    0.76933   1.00
C3       0.93107    0.18979    0.82999   1.00
H1       0.76413    0.09928    0.76962   1.00
H1       0.81558    0.06444    0.78994   1.00
C5       0.90101    0.30866    0.79877   1.00
C5       0.91419    0.28091    0.81633   1.00
H1       0.72452    0.14450    0.74456   1.00
H1       0.86169    0.02687    0.81533   1.00
H1       0.84207    0.34035    0.76946   1.00
H1       0.96498    0.22386    0.84020   1.00
O3       0.93075    0.37814    0.79617   1.00
O3       0.94372    0.32107    0.83326   1.00
Si1      1.00394    0.42008    0.78450   1.00
Si1      0.89503    0.31538    0.85228   1.00
C6       1.00636    0.49909    0.78301   1.00
C6       1.06711    0.42459    0.80110   1.00
C6       1.00367    0.38762    0.76012   1.00
C6       0.80687    0.25570    0.85064   1.00
C6       0.93048    0.29396    0.87270   1.00
C6       0.90790    0.39772    0.85670   1.00
C6       0.93941    0.49622    0.77535   1.00
H2       1.01109    0.51411    0.79893   1.00
C6       1.06603    0.56152    0.77175   1.00
H2       1.04344    0.41962    0.81589   1.00
C6       1.08548    0.36660    0.80017   1.00
C6       1.13727    0.49249    0.80210   1.00
H2       0.95681    0.38199    0.75355   1.00
C6       1.06256    0.43503    0.74529   1.00
C6       0.99914    0.31633    0.75800   1.00
C6       0.76620    0.26140    0.83231   1.00
C6       0.78137    0.17786    0.85337   1.00
H2       0.78672    0.26821    0.86398   1.00
H2       0.91780    0.24169    0.86942   1.00
C6       1.01009    0.33546    0.87450   1.00
C6       0.90177    0.29293    0.89435   1.00
H2       0.95499    0.42292    0.86551   1.00
C6       0.92210    0.44371    0.83764   1.00
C6       0.85325    0.40441    0.86949   1.00
H2       0.89540    0.46143    0.78451   1.00
H2       0.92863    0.47929    0.75958   1.00
H2       0.94333    0.54626    0.77636   1.00
H2       1.07690    0.60905    0.77921   1.00
H2       1.11308    0.55971    0.77155   1.00
H2       1.05323    0.56555    0.75603   1.00
H2       1.11358    0.36724    0.81374   1.00
H2       1.04026    0.31620    0.79954   1.00
H2       1.11753    0.37278    0.78706   1.00
H2       1.13070    0.53587    0.80574   1.00
H2       1.16981    0.49046    0.81403   1.00
H2       1.16489    0.50240    0.78778   1.00
H2       1.11246    0.45290    0.75223   1.00
H2       1.06098    0.40904    0.73113   1.00
H2       1.05828    0.47884    0.74074   1.00
H2       1.04930    0.32057    0.75852   1.00
H2       0.96842    0.28022    0.76965   1.00
H2       0.97616    0.29312    0.74343   1.00
H2       0.77102    0.23630    0.81883   1.00
H2       0.71184    0.23677    0.83590   1.00
H2       0.78271    0.31414    0.82844   1.00
H2       0.72582    0.14885    0.85483   1.00
H2       0.79454    0.15662    0.84050   1.00
H2       0.80167    0.16758    0.86708   1.00
H2       1.02780    0.31109    0.88533   1.00
H2       1.03447    0.33761    0.85999   1.00
H2       1.02848    0.38761    0.87962   1.00
H2       0.84619    0.26316    0.89469   1.00
H2       0.92033    0.26948    0.90524   1.00
H2       0.91787    0.34443    0.89972   1.00
H2       0.87923    0.42244    0.82711   1.00
H2       0.93345    0.49504    0.84179   1.00
H2       0.96631    0.44900    0.82960   1.00
H2       0.87194    0.45754    0.87376   1.00
H2       0.80598    0.38686    0.86096   1.00
H2       0.84117    0.37530    0.88354   1.00
C4       -0.02771   0.46518    0.38202   1.00
C4       0.02326    0.49081    0.36651   1.00
C3       -0.07245   0.39464    0.38561   1.00
C3       0.03046    0.44875    0.35189   1.00
C3       -0.03553   0.51228    0.39453   1.00
C3       0.07009    0.56237    0.36541   1.00
C2       -0.13170   0.41748    0.41302   1.00
C2       0.12670    0.54669    0.33533   1.00
C3       -0.12327   0.37140    0.40060   1.00
C3       0.08114    0.47581    0.33685   1.00
C3       -0.08628   0.48779    0.40982   1.00
C3       0.11891    0.58890    0.34960   1.00
H1       -0.06927   0.35807    0.37749   1.00
H1       -0.00117   0.39726    0.35167   1.00
C5       0.00757    0.58350    0.39173   1.00
C5       0.06765    0.60719    0.37995   1.00
H1       -0.15447   0.31978    0.40241   1.00
H1       0.08431    0.44289    0.32679   1.00
H1       -0.09005   0.52215    0.41905   1.00
H1       0.14917    0.64058    0.34825   1.00
O3       -0.00730   0.62845    0.40141   1.00
O3       0.12015    0.67388    0.38165   1.00
Si1      -0.05254   0.65605    0.38979   1.00
Si1      0.18635    0.69012    0.39548   1.00
C6       -0.06311   0.69851    0.41072   1.00
C6       -0.00016   0.71439    0.37107   1.00
C6       -0.13180   0.58983    0.38096   1.00
C6       0.18898    0.62090    0.40695   1.00
C6       0.25458    0.73118    0.37840   1.00
C6       0.19483    0.74988    0.41402   1.00
C6       -0.08552   0.65726    0.43109   1.00
H2       -0.01110   0.73996    0.41335   1.00
C6       -0.10779   0.73349    0.40900   1.00
H2       0.05074    0.73193    0.37719   1.00
C6       -0.00006   0.68666    0.34934   1.00
C6       -0.00464   0.78038    0.36755   1.00
H2       -0.15129   0.55654    0.39422   1.00
C6       -0.18734   0.60906    0.37536   1.00
C6       -0.13373   0.54386    0.36281   1.00
C6       0.12907    0.57317    0.42136   1.00
C6       0.20464    0.57305    0.39364   1.00
H2       0.23364    0.64673    0.41676   1.00
H2       0.24780    0.69065    0.36806   1.00
C6       0.25413    0.78732    0.36464   1.00
C6       0.32835    0.76254    0.38720   1.00
H2       0.22045    0.79868    0.40606   1.00
C6       0.12727    0.74360    0.42216   1.00
C6       0.23960    0.75867    0.43314   1.00
H2       -0.05051   0.63947    0.43544   1.00
H2       -0.13663   0.61280    0.42984   1.00
H2       -0.08582   0.68884    0.44358   1.00
H2       -0.08662   0.77889    0.41862   1.00
H2       -0.11043   0.74938    0.39363   1.00
H2       -0.16009   0.70020    0.41415   1.00
H2       0.04404    0.72399    0.34065   1.00
H2       0.00338    0.64044    0.34980   1.00
H2       -0.04577   0.67619    0.34091   1.00
H2       0.00479    0.80953    0.38153   1.00
H2       0.03394    0.81462    0.35671   1.00
H2       -0.05449   0.76800    0.36153   1.00
H2       -0.16760   0.65108    0.36450   1.00
H2       -0.23283   0.56605    0.36872   1.00
H2       -0.20543   0.62322    0.38874   1.00
H2       -0.13456   0.56569    0.34813   1.00
H2       -0.09090   0.53510    0.36261   1.00
H2       -0.17985   0.49374    0.36370   1.00
H2       0.08552    0.53436    0.41294   1.00
H2       0.14524    0.54639    0.43178   1.00
H2       0.11174    0.60135    0.43063   1.00
H2       0.21403    0.53917    0.40323   1.00
H2       0.16249    0.54068    0.38364   1.00
H2       0.25030    0.60163    0.38441   1.00
H2       0.29126    0.80138    0.35236   1.00
H2       0.20437    0.76903    0.35752   1.00
H2       0.26683    0.83351    0.37315   1.00
H2       0.33405    0.72602    0.39659   1.00
H2       0.36558    0.77753    0.37490   1.00
H2       0.34201    0.80799    0.39625   1.00
H2       0.09544    0.69519    0.42986   1.00
H2       0.13707    0.78482    0.43267   1.00
H2       0.09802    0.74704    0.40963   1.00
H2       0.24937    0.80385    0.44181   1.00
H2       0.21442    0.71468    0.44325   1.00
H2       0.28919    0.76543    0.42897   1.00
C4       0.49293    1.02782    0.38198   1.00
C4       0.46761    0.97683    0.36648   1.00
C3       0.46835    1.07374    0.38522   1.00
C3       0.41970    0.97074    0.35153   1.00
C3       0.54657    1.03441    0.39486   1.00
C3       0.49094    0.92883    0.36574   1.00
C2       0.54916    1.13173    0.41301   1.00
C2       0.42003    0.87327    0.33534   1.00
C3       0.49591    1.12453    0.40023   1.00
C3       0.39606    0.92001    0.33650   1.00
C3       0.57282    1.08515    0.41016   1.00
C3       0.46870    0.87995    0.34995   1.00
H1       0.42953    1.07149    0.37682   1.00
H1       0.40090    1.00324    0.35105   1.00
C5       0.57345    0.99009    0.39244   1.00
C5       0.53676    0.93016    0.38062   1.00
H1       0.47642    1.15661    0.40177   1.00
H1       0.36098    0.91767    0.32619   1.00
H1       0.60998    1.08804    0.41966   1.00
H1       0.48918    0.84879    0.34886   1.00
O3       0.63227    1.00368    0.40250   1.00
O3       0.54936    0.87667    0.38261   1.00
Si1      0.70601    1.04765    0.39125   1.00
Si1      0.49755    0.81093    0.39631   1.00
C6       0.75734    1.05708    0.41253   1.00
C6       0.71175    0.99446    0.37278   1.00
C6       0.72140    1.12754    0.38223   1.00
C6       0.42584    0.81006    0.40726   1.00
C6       0.47009    0.74252    0.37929   1.00
C6       0.54682    0.80111    0.41526   1.00
C6       0.73804    1.08025    0.43267   1.00
H2       0.74547    1.00471    0.41528   1.00
C6       0.83719    1.10034    0.41124   1.00
H2       0.67719    0.94378    0.37884   1.00
C6       0.68562    0.99501    0.35085   1.00
C6       0.78167    0.99726    0.36975   1.00
H2       0.70743    1.14762    0.39531   1.00
C6       0.79693    1.18190    0.37697   1.00
C6       0.67909    1.13055    0.36375   1.00
C6       0.43846    0.87041    0.42154   1.00
C6       0.36357    0.79575    0.39354   1.00
H2       0.40554    0.76533    0.41709   1.00
H2       0.43757    0.75019    0.36868   1.00
C6       0.52683    0.74156    0.36595   1.00
C6       0.42585    0.66891    0.38805   1.00
H2       0.56956    0.77460    0.40757   1.00
C6       0.60848    0.86799    0.42360   1.00
C6       0.50902    0.75672    0.43427   1.00
H2       0.68477    1.04612    0.43677   1.00
H2       0.74594    1.13181    0.43128   1.00
H2       0.76874    1.07979    0.44540   1.00
H2       0.86000    1.07832    0.42110   1.00
H2       0.85650    1.10252    0.39600   1.00
H2       0.85693    1.15280    0.41633   1.00
H2       0.67839    0.95054    0.34227   1.00
H2       0.63648    0.99276    0.35095   1.00
H2       0.72206    1.04039    0.34251   1.00
H2       0.80003    0.98725    0.38392   1.00
H2       0.77708    0.95830    0.35903   1.00
H2       0.82025    1.04678    0.36383   1.00
H2       0.81912    1.16136    0.36635   1.00
H2       0.80092    1.22787    0.37019   1.00
H2       0.82838    1.19943    0.39052   1.00
H2       0.70238    1.13081    0.34924   1.00
H2       0.62710    1.08846    0.36333   1.00
H2       0.67622    1.17732    0.36444   1.00
H2       0.44473    0.91435    0.41300   1.00
H2       0.39501    0.85511    0.43170   1.00
H2       0.48325    0.88684    0.43107   1.00
H2       0.32003    0.78732    0.40285   1.00
H2       0.37489    0.83815    0.38346   1.00
H2       0.34615    0.74994    0.38436   1.00
H2       0.50388    0.70452    0.35363   1.00
H2       0.55956    0.79113    0.35888   1.00
H2       0.55905    0.72789    0.37475   1.00
H2       0.38345    0.66420    0.39714   1.00
H2       0.40374    0.63176    0.37572   1.00
H2       0.45635    0.65432    0.39738   1.00
H2       0.59244    0.90063    0.43106   1.00
H2       0.63861    0.85731    0.43437   1.00
H2       0.64226    0.89677    0.41121   1.00
H2       0.54319    0.74597    0.44324   1.00
H2       0.49044    0.78268    0.44415   1.00
H2       0.46577    0.70758    0.42997   1.00
C4       0.53489    0.50707    0.38198   1.00
C4       0.50924    0.53240    0.36648   1.00
C3       0.60541    0.53170    0.38524   1.00
C3       0.55106    0.58035    0.35155   1.00
C3       0.48784    0.45338    0.39485   1.00
C3       0.43789    0.50901    0.36572   1.00
C2       0.58257    0.45084    0.41301   1.00
C2       0.45326    0.57997    0.33534   1.00
C3       0.62862    0.50414    0.40024   1.00
C3       0.52396    0.60399    0.33651   1.00
C3       0.51233    0.42713    0.41015   1.00
C3       0.41125    0.53125    0.34993   1.00
H1       0.64197    0.57055    0.37684   1.00
H1       0.60237    0.59919    0.35107   1.00
C5       0.41664    0.42646    0.39241   1.00
C5       0.39338    0.46313    0.38059   1.00
H1       0.68020    0.52367    0.40179   1.00
H1       0.55673    0.63912    0.32622   1.00
H1       0.47806    0.38994    0.41963   1.00
H1       0.35961    0.51073    0.34884   1.00
O3       0.37142    0.36760    0.40246   1.00
O3       0.32728    0.45047    0.38257   1.00
Si1      0.34173    0.29388    0.39120   1.00
Si1      0.31325    0.50221    0.39628   1.00
C6       0.29981    0.24249    0.41246   1.00
C6       0.28283    0.28814    0.37271   1.00
C6       0.40630    0.27859    0.38218   1.00
C6       0.38402    0.57392    0.40725   1.00
C6       0.27230    0.52966    0.37926   1.00
C6       0.25414    0.45286    0.41522   1.00
C6       0.34224    0.26178    0.43261   1.00
H2       0.25928    0.25432    0.41520   1.00
C6       0.26328    0.16264    0.41115   1.00
H2       0.26666    0.32266    0.37877   1.00
C6       0.30955    0.31434    0.35079   1.00
C6       0.21576    0.21820    0.36967   1.00
H2       0.44032    0.29255    0.39527   1.00
C6       0.38520    0.20308    0.37691   1.00
C6       0.45165    0.32096    0.36372   1.00
C6       0.43176    0.56132    0.42153   1.00
C6       0.43198    0.63624    0.39355   1.00
H2       0.35955    0.59417    0.41708   1.00
H2       0.31250    0.56222    0.36865   1.00
C6       0.21466    0.47293    0.36590   1.00
C6       0.24285    0.57383    0.38802   1.00
H2       0.20490    0.43010    0.40751   1.00
C6       0.25939    0.39121    0.42354   1.00
C6       0.24746    0.49060    0.43423   1.00
H2       0.36133    0.31503    0.43672   1.00
H2       0.38593    0.25392    0.43123   1.00
H2       0.31105    0.23102    0.44533   1.00
H2       0.21844    0.13979    0.42101   1.00
H2       0.24621    0.14337    0.39591   1.00
H2       0.29603    0.14294    0.41624   1.00
H2       0.27231    0.32155    0.34220   1.00
H2       0.35641    0.36349    0.35090   1.00
H2       0.31855    0.27794    0.34245   1.00
H2       0.18735    0.19978    0.38383   1.00
H2       0.18138    0.22277    0.35894   1.00
H2       0.22674    0.17966    0.36375   1.00
H2       0.34250    0.18090    0.36628   1.00
H2       0.42723    0.19916    0.37013   1.00
H2       0.37127    0.17160    0.39045   1.00
H2       0.42866    0.29769    0.34919   1.00
H2       0.46151    0.37294    0.36330   1.00
H2       0.50131    0.32388    0.36441   1.00
H2       0.46947    0.55511    0.41299   1.00
H2       0.45987    0.60476    0.43170   1.00
H2       0.40341    0.51651    0.43106   1.00
H2       0.46705    0.67978    0.40286   1.00
H2       0.46312    0.62499    0.38347   1.00
H2       0.40359    0.65365    0.38436   1.00
H2       0.20057    0.49588    0.35359   1.00
H2       0.23156    0.44025    0.35883   1.00
H2       0.16876    0.44066    0.37469   1.00
H2       0.28049    0.61622    0.39712   1.00
H2       0.22782    0.59595    0.37569   1.00
H2       0.19775    0.54328    0.39734   1.00
H2       0.30807    0.40728    0.43101   1.00
H2       0.21857    0.36104    0.43430   1.00
H2       0.25446    0.35748    0.41115   1.00
H2       0.20253    0.45638    0.44319   1.00
H2       0.29198    0.50918    0.44412   1.00
H2       0.24154    0.53383    0.42993   1.00
C4       0.19484    0.35795    0.21626   1.00
C4       0.16909    0.30693    0.20077   1.00
C3       0.15891    0.35308    0.23441   1.00
C3       0.10245    0.24908    0.20102   1.00
C3       0.25963    0.41791    0.21348   1.00
C3       0.21193    0.31341    0.18403   1.00
C2       0.24887    0.46489    0.24641   1.00
C2       0.12028    0.20679    0.16862   1.00
C3       0.18496    0.40522    0.24902   1.00
C3       0.07890    0.20003    0.18549   1.00
C3       0.28559    0.46935    0.22857   1.00
C3       0.18621    0.26497    0.16812   1.00
H1       0.11287    0.31141    0.23758   1.00
H1       0.06890    0.24108    0.21242   1.00
C5       0.29819    0.42597    0.19568   1.00
C5       0.27994    0.36843    0.18315   1.00
H1       0.15646    0.39909    0.26178   1.00
H1       0.03044    0.15894    0.18656   1.00
H1       0.33296    0.51121    0.22663   1.00
H1       0.21598    0.27266    0.15563   1.00
O3       0.35481    0.48817    0.19147   1.00
O3       0.32612    0.36852    0.16942   1.00
Si1      0.34754    0.54288    0.17707   1.00
Si1      0.36756    0.32919    0.17537   1.00
C6       0.43081    0.61204    0.18081   1.00
C6       0.33599    0.51230    0.15196   1.00
C6       0.28551    0.56238    0.18577   1.00
C6       0.34907    0.28570    0.19883   1.00
C6       0.34713    0.27058    0.15547   1.00
C6       0.45520    0.38940    0.17376   1.00
C6       0.45606    0.62699    0.20337   1.00
H2       0.46209    0.59392    0.17351   1.00
C6       0.45379    0.68373    0.17117   1.00
H2       0.35981    0.48068    0.15242   1.00
C6       0.26158    0.46461    0.14419   1.00
C6       0.37264    0.56462    0.13440   1.00
H2       0.29789    0.57213    0.20189   1.00
C6       0.28859    0.62832    0.17712   1.00
C6       0.20786    0.50671    0.18453   1.00
C6       0.35750    0.32729    0.21861   1.00
C6       0.28112    0.21607    0.20135   1.00
H2       0.38845    0.27142    0.19972   1.00
H2       0.29346    0.23346    0.15800   1.00
C6       0.35065    0.29884    0.13355   1.00
C6       0.38556    0.22933    0.15473   1.00
H2       0.46651    0.39179    0.15759   1.00
C6       0.47666    0.46403    0.17982   1.00
C6       0.50658    0.37267    0.18465   1.00
H2       0.45233    0.58195    0.21067   1.00
H2       0.42618    0.64346    0.21228   1.00
H2       0.50961    0.66696    0.20423   1.00
H2       0.50788    0.70891    0.16719   1.00
H2       0.42574    0.68070    0.15747   1.00
H2       0.44796    0.71779    0.18167   1.00
H2       0.26174    0.43798    0.13037   1.00
H2       0.23074    0.42526    0.15518   1.00
H2       0.23632    0.49367    0.14064   1.00
H2       0.42759    0.59437    0.13689   1.00
H2       0.36565    0.53873    0.11984   1.00
H2       0.35255    0.59933    0.13283   1.00
H2       0.28830    0.62803    0.16056   1.00
H2       0.24555    0.63371    0.18224   1.00
H2       0.33376    0.67405    0.18239   1.00
H2       0.18549    0.50728    0.16991   1.00
H2       0.19813    0.45525    0.18685   1.00
H2       0.17915    0.51609    0.19619   1.00
H2       0.31266    0.33186    0.22163   1.00
H2       0.36445    0.30188    0.23174   1.00
H2       0.40175    0.37837    0.21798   1.00
H2       0.28160    0.19112    0.21551   1.00
H2       0.23658    0.22238    0.20186   1.00
H2       0.27381    0.18033    0.18921   1.00
H2       0.32622    0.25686    0.12269   1.00
H2       0.32367    0.32750    0.13262   1.00
H2       0.40309    0.33209    0.12858   1.00
H2       0.38399    0.20588    0.16933   1.00
H2       0.36173    0.18798    0.14364   1.00
H2       0.43881    0.26167    0.15029   1.00
H2       0.46544    0.46808    0.19567   1.00
H2       0.53101    0.49876    0.17726   1.00
H2       0.44931    0.48214    0.17057   1.00
H2       0.55898    0.40836    0.17999   1.00
H2       0.50403    0.37616    0.20112   1.00
H2       0.49689    0.32172    0.18088   1.00
C4       0.63458    0.83399    0.21403   1.00
C4       0.68695    0.86140    0.19894   1.00
C3       0.57157    0.83286    0.21209   1.00
C3       0.68415    0.89591    0.18130   1.00
C3       0.64570    0.80701    0.23228   1.00
C3       0.74558    0.85408    0.20143   1.00
C2       0.53266    0.78076    0.24567   1.00
C2       0.79566    0.91673    0.16936   1.00
C3       0.52215    0.80734    0.22751   1.00
C3       0.73669    0.92227    0.16682   1.00
C3       0.59467    0.78034    0.24749   1.00
C3       0.79927    0.88355    0.18709   1.00
H1       0.55964    0.85032    0.19939   1.00
H1       0.64407    0.90330    0.17852   1.00
C5       0.70758    0.80658    0.23518   1.00
C5       0.75071    0.81796    0.21826   1.00
H1       0.47776    0.80830    0.22532   1.00
H1       0.73162    0.94623    0.15427   1.00
H1       0.60257    0.75943    0.26025   1.00
H1       0.84279    0.88167    0.18975   1.00
O3       0.72287    0.79125    0.25399   1.00
O3       0.79972    0.79864    0.21890   1.00
Si1      0.76861    0.85257    0.26992   1.00
Si1      0.78392    0.72767    0.20789   1.00
C6       0.75862    0.80041    0.29103   1.00
C6       0.85336    0.89435    0.26101   1.00
C6       0.73471    0.90643    0.27483   1.00
C6       0.70569    0.68027    0.19487   1.00
C6       0.85170    0.75417    0.19068   1.00
C6       0.79252    0.67656    0.22647   1.00
C6       0.68394    0.74215    0.29556   1.00
H2       0.78584    0.77441    0.28616   1.00
C6       0.78965    0.83240    0.31225   1.00
H2       0.85455    0.85440    0.25207   1.00
C6       0.87657    0.95627    0.24629   1.00
C6       0.91259    0.91784    0.27679   1.00
H2       0.68102    0.86978    0.27773   1.00
C6       0.76138    0.95290    0.29413   1.00
C6       0.73615    0.95543    0.25771   1.00
C6       0.63820    0.65690    0.20699   1.00
C6       0.69565    0.70588    0.17377   1.00
H2       0.70574    0.63331    0.19117   1.00
H2       0.84124    0.78250    0.17922   1.00
C6       0.92439    0.80544    0.19908   1.00
C6       0.85823    0.69742    0.17911   1.00
H2       0.84744    0.69660    0.22739   1.00
C6       0.77064    0.68265    0.24844   1.00
C6       0.75989    0.59839    0.22214   1.00
H2       0.66095    0.70942    0.28235   1.00
H2       0.65148    0.76300    0.29997   1.00
H2       0.68288    0.70915    0.30783   1.00
H2       0.80547    0.80028    0.32024   1.00
H2       0.83400    0.88316    0.31111   1.00
H2       0.75273    0.83606    0.32205   1.00
H2       0.92403    0.96799    0.23860   1.00
H2       0.83928    0.94586    0.23440   1.00
H2       0.88576    1.00199    0.25448   1.00
H2       0.90655    0.87530    0.28608   1.00
H2       0.96203    0.93820    0.26924   1.00
H2       0.91524    0.95780    0.28667   1.00
H2       0.81697    0.98349    0.29414   1.00
H2       0.74124    0.98781    0.29517   1.00
H2       0.74476    0.92283    0.30796   1.00
H2       0.78376    1.00421    0.25769   1.00
H2       0.72972    0.93438    0.24259   1.00
H2       0.69482    0.96650    0.26004   1.00
H2       0.62506    0.69701    0.20778   1.00
H2       0.59555    0.61312    0.19959   1.00
H2       0.64115    0.64130    0.22239   1.00
H2       0.64913    0.66669    0.16643   1.00
H2       0.69085    0.75118    0.17509   1.00
H2       0.73732    0.71708    0.16334   1.00
H2       0.96095    0.82768    0.18662   1.00
H2       0.92469    0.84780    0.20712   1.00
H2       0.94311    0.78084    0.20941   1.00
H2       0.81005    0.66018    0.17218   1.00
H2       0.89557    0.71982    0.16684   1.00
H2       0.87525    0.67059    0.18918   1.00
H2       0.71655    0.66641    0.24940   1.00
H2       0.78130    0.65250    0.25921   1.00
H2       0.79926    0.73531    0.25345   1.00
H2       0.77746    0.57449    0.23318   1.00
H2       0.70428    0.57234    0.22304   1.00
H2       0.77391    0.58877    0.20720   1.00
C4       0.16495    0.79967    0.21407   1.00
C4       0.13768    0.82488    0.19902   1.00
C3       0.15449    0.73240    0.21402   1.00
C3       0.09222    0.78363    0.18351   1.00
C3       0.20409    0.84340    0.23034   1.00
C3       0.15665    0.89522    0.19930   1.00
C2       0.21898    0.75149    0.24562   1.00
C2       0.08353    0.87936    0.16941   1.00
C3       0.18040    0.70880    0.22941   1.00
C3       0.06637    0.81022    0.16899   1.00
C3       0.23087    0.81903    0.24551   1.00
C3       0.12775    0.92034    0.18506   1.00
H1       0.12793    0.69864    0.20276   1.00
H1       0.07621    0.73297    0.18237   1.00
C5       0.21647    0.91127    0.23129   1.00
C5       0.20383    0.94003    0.21386   1.00
H1       0.17078    0.65948    0.22865   1.00
H1       0.03415    0.77812    0.15802   1.00
H1       0.26044    0.85156    0.25677   1.00
H1       0.13843    0.96974    0.18626   1.00
O3       0.24419    0.94938    0.24859   1.00
O3       0.23308    1.00992    0.21198   1.00
Si1      0.19416    0.95080    0.26619   1.00
Si1      0.30080    1.05124    0.19783   1.00
C6       0.25784    0.99553    0.28459   1.00
C6       0.16000    1.00058    0.25701   1.00
C6       0.13332    0.86883    0.27492   1.00
C6       0.33182    1.00394    0.18484   1.00
C6       0.27612    1.09283    0.18016   1.00
C6       0.36535    1.11383    0.21322   1.00
C6       0.30922    0.96924    0.28826   1.00
H2       0.28790    1.04563    0.27756   1.00
C6       0.23899    1.00951    0.30629   1.00
H2       0.19856    1.03345    0.24603   1.00
C6       0.09117    0.96412    0.24503   1.00
C6       0.15248    1.04996    0.27203   1.00
H2       0.16451    0.84513    0.27749   1.00
C6       0.09742    0.86447    0.29564   1.00
C6       0.07340    0.81948    0.26056   1.00
C6       0.35082    0.95767    0.19763   1.00
C6       0.29299    0.96135    0.16566   1.00
H2       0.38008    1.04407    0.17869   1.00
H2       0.23883    1.05155    0.17065   1.00
C6       0.23788    1.12877    0.18895   1.00
C6       0.33226    1.14519    0.16552   1.00
H2       0.35383    1.15523    0.21351   1.00
C6       0.36538    1.09450    0.23591   1.00
C6       0.44097    1.14640    0.20579   1.00
H2       0.33397    0.96797    0.27418   1.00
H2       0.28353    0.91789    0.29470   1.00
H2       0.34989    1.00270    0.29867   1.00
H2       0.27962    1.05841    0.31201   1.00
H2       0.19199    1.01144    0.30650   1.00
H2       0.23335    0.97097    0.31730   1.00
H2       0.08322    1.00120    0.23661   1.00
H2       0.09034    0.92830    0.23387   1.00
H2       0.04790    0.93692    0.25526   1.00
H2       0.20108    1.08526    0.27915   1.00
H2       0.13573    1.08155    0.26414   1.00
H2       0.11500    1.02160    0.28383   1.00
H2       0.07435    0.89683    0.29556   1.00
H2       0.05729    0.81238    0.29913   1.00
H2       0.13304    0.87935    0.30821   1.00
H2       0.02960    0.82714    0.26167   1.00
H2       0.08765    0.82475    0.24470   1.00
H2       0.05565    0.76643    0.26471   1.00
H2       0.30624    0.90835    0.20093   1.00
H2       0.38668    0.94768    0.18931   1.00
H2       0.37512    0.98133    0.21194   1.00
H2       0.32333    0.94316    0.15775   1.00
H2       0.24455    0.91658    0.16950   1.00
H2       0.28331    0.99151    0.15467   1.00
H2       0.21464    1.14279    0.17670   1.00
H2       0.19659    1.09497    0.19912   1.00
H2       0.27210    1.17511    0.19728   1.00
H2       0.36044    1.12368    0.15817   1.00
H2       0.30907    1.15999    0.15345   1.00
H2       0.36844    1.19158    0.17353   1.00
H2       0.37388    1.05143    0.23765   1.00
H2       0.40433    1.13732    0.24463   1.00
H2       0.31655    1.08056    0.24277   1.00
H2       0.47458    1.19120    0.21490   1.00
H2       0.45963    1.11040    0.20700   1.00
H2       0.44664    1.16350    0.19009   1.00
C4       1.02492    0.52696    0.61717   1.00
C4       0.97404    0.50158    0.63271   1.00
C3       1.02988    0.48513    0.60200   1.00
C3       0.92703    0.43119    0.63574   1.00
C3       1.07454    0.59788    0.61682   1.00
C3       0.96924    0.54870    0.64603   1.00
C2       1.13137    0.58160    0.58688   1.00
C2       0.87363    0.45423    0.66477   1.00
C3       1.08184    0.51158    0.58734   1.00
C3       0.87778    0.40817    0.65120   1.00
C3       1.12579    0.62378    0.60167   1.00
C3       0.92117    0.52427    0.66206   1.00
H1       0.99574    0.43427    0.60112   1.00
H1       0.92745    0.39455    0.62688   1.00
C5       1.07247    0.64251    0.63155   1.00
C5       1.01275    0.61985    0.64343   1.00
H1       1.08315    0.47879    0.57684   1.00
H1       0.84473    0.35671    0.65256   1.00
H1       1.15989    0.67507    0.60127   1.00
H1       0.92127    0.55836    0.67225   1.00
O3       1.12648    0.70811    0.63326   1.00
O3       1.00030    0.66626    0.65339   1.00
Si1      1.18749    0.72503    0.64947   1.00
Si1      0.94708    0.68668    0.64333   1.00
C6       1.24309    0.80974    0.64164   1.00
C6       1.15486    0.72248    0.67393   1.00
C6       1.22510    0.67364    0.64618   1.00
C6       0.90553    0.64598    0.62054   1.00
C6       0.88619    0.66634    0.66254   1.00
C6       0.99134    0.77585    0.64013   1.00
C6       1.25489    0.82104    0.61819   1.00
H2       1.21478    0.83522    0.64590   1.00
C6       1.31557    0.85326    0.65144   1.00
H2       1.11412    0.73362    0.67077   1.00
C6       1.12038    0.65312    0.68566   1.00
C6       1.20201    0.77698    0.68987   1.00
H2       1.23392    0.67680    0.62982   1.00
C6       1.29630    0.69862    0.65634   1.00
C6       1.18313    0.59562    0.65156   1.00
C6       0.95067    0.65202    0.60183   1.00
C6       0.84604    0.57008    0.62110   1.00
H2       0.88003    0.67427    0.61631   1.00
H2       0.85892    0.61074    0.66299   1.00
C6       0.91481    0.68975    0.68450   1.00
C6       0.83111    0.68776    0.65918   1.00
H2       0.98996    0.79549    0.65514   1.00
C6       1.06859    0.80951    0.63482   1.00
C6       0.96087    0.80745    0.62518   1.00
H2       1.20677    0.80180    0.61001   1.00
H2       1.28115    0.79532    0.61220   1.00
H2       1.28557    0.87526    0.61452   1.00
H2       1.32948    0.90695    0.65203   1.00
H2       1.31824    0.83747    0.66682   1.00
H2       1.35530    0.85108    0.64264   1.00
H2       1.09001    0.65456    0.69835   1.00
H2       1.08557    0.61076    0.67608   1.00
H2       1.15843    0.64197    0.69186   1.00
H2       1.22122    0.82870    0.68421   1.00
H2       1.17419    0.77312    0.70383   1.00
H2       1.24514    0.77038    0.69393   1.00
H2       1.29483    0.70820    0.67251   1.00
H2       1.31337    0.66138    0.65471   1.00
H2       1.33574    0.74478    0.64917   1.00
H2       1.18828    0.58601    0.66750   1.00
H2       1.12908    0.57272    0.64849   1.00
H2       1.20149    0.56738    0.64260   1.00
H2       0.96713    0.61434    0.60237   1.00
H2       0.92191    0.64326    0.58775   1.00
H2       0.99580    0.70235    0.60066   1.00
H2       0.81949    0.55548    0.60652   1.00
H2       0.86416    0.53460    0.62411   1.00
H2       0.80762    0.56194    0.63244   1.00
H2       0.87391    0.66506    0.69569   1.00
H2       0.95304    0.67550    0.68827   1.00
H2       0.93795    0.74478    0.68642   1.00
H2       0.80675    0.67160    0.64437   1.00
H2       0.79072    0.66387    0.67057   1.00
H2       0.85307    0.74290    0.66049   1.00
H2       1.07702    0.79181    0.62031   1.00
H2       1.09305    0.86505    0.63428   1.00
H2       1.09469    0.79716    0.64642   1.00
H2       0.98673    0.86289    0.62687   1.00
H2       0.96656    0.79641    0.60940   1.00
H2       0.90692    0.78835    0.62808   1.00
C4       0.50217    -0.02488   0.61716   1.00
C4       0.52766    0.02601    0.63269   1.00
C3       0.45681    -0.02876   0.60167   1.00
C3       0.50556    0.07418    0.63538   1.00
C3       0.52200    -0.07562   0.61715   1.00
C3       0.57820    0.02961    0.64638   1.00
C2       0.45026    -0.13139   0.58689   1.00
C2       0.58055    0.12639    0.66476   1.00
C3       0.43124    -0.08074   0.58701   1.00
C3       0.53171    0.12340    0.65085   1.00
C3       0.49664    -0.12689   0.60200   1.00
C3       0.60175    0.07771    0.66239   1.00
H1       0.44120    0.00620    0.60053   1.00
H1       0.46950    0.07465    0.62625   1.00
C5       0.56725    -0.07465   0.63221   1.00
C5       0.60458    -0.01510   0.64414   1.00
H1       0.39819    -0.08124   0.57626   1.00
H1       0.51427    0.15730    0.65195   1.00
H1       0.51279    -0.16182   0.60185   1.00
H1       0.63466    0.07678    0.67283   1.00
O3       0.57724    -0.12960   0.63421   1.00
O3       0.66238    -0.00394   0.65448   1.00
Si1      0.53121    -0.19023   0.65030   1.00
Si1      0.73701    0.04810    0.64478   1.00
C6       0.55905    -0.24724   0.64290   1.00
C6       0.56021    -0.15791   0.67486   1.00
C6       0.44262    -0.22611   0.64651   1.00
C6       0.74030    0.09009    0.62184   1.00
C6       0.77737    0.10875    0.66406   1.00
C6       0.78046    0.00219    0.64207   1.00
C6       0.55972    -0.25921   0.61949   1.00
H2       0.61259    -0.21991   0.64745   1.00
C6       0.52806    -0.31986   0.65275   1.00
H2       0.61263    -0.11796   0.67194   1.00
C6       0.52590    -0.12214   0.68621   1.00
C6       0.56530    -0.20579   0.69103   1.00
H2       0.43783    -0.23492   0.63014   1.00
C6       0.39460    -0.29702   0.65658   1.00
C6       0.40774    -0.18274   0.65146   1.00
C6       0.70173    0.04534    0.60302   1.00
C6       0.72553    0.15070    0.62207   1.00
H2       0.79429    0.11457    0.61791   1.00
H2       0.75005    0.13705    0.66419   1.00
C6       0.77016    0.07994    0.68608   1.00
C6       0.85447    0.16261    0.66106   1.00
H2       0.80032    0.00309    0.65723   1.00
C6       0.73583    -0.07493   0.63672   1.00
C6       0.84340    0.03147    0.62747   1.00
H2       0.58993    -0.21122   0.61136   1.00
H2       0.50812    -0.28451   0.61322   1.00
H2       0.58242    -0.29084   0.61612   1.00
H2       0.56695    -0.33492   0.65369   1.00
H2       0.50882    -0.32209   0.66800   1.00
H2       0.48625    -0.35905   0.64379   1.00
H2       0.55726    -0.09217   0.69902   1.00
H2       0.51990    -0.08674   0.67645   1.00
H2       0.47600    -0.15943   0.69219   1.00
H2       0.59728    -0.22604   0.68568   1.00
H2       0.58879    -0.17820   0.70507   1.00
H2       0.51490    -0.24821   0.69488   1.00
H2       0.40454    -0.29578   0.67283   1.00
H2       0.34066    -0.31296   0.65461   1.00
H2       0.40070    -0.33711   0.64961   1.00
H2       0.39205    -0.18756   0.66731   1.00
H2       0.44002    -0.12880   0.64843   1.00
H2       0.36182    -0.20019   0.64222   1.00
H2       0.64783    0.03001    0.60322   1.00
H2       0.72305    0.07393    0.58898   1.00
H2       0.70581    -0.00047   0.60205   1.00
H2       0.73889    0.17726    0.60747   1.00
H2       0.67197    0.13369    0.62475   1.00
H2       0.75567    0.18886    0.63348   1.00
H2       0.78649    0.12096    0.69723   1.00
H2       0.71717    0.04255    0.68960   1.00
H2       0.80095    0.05574    0.68832   1.00
H2       0.86408    0.18704    0.64622   1.00
H2       0.87104    0.20309    0.67242   1.00
H2       0.88660    0.13956    0.66270   1.00
H2       0.71073    -0.08284   0.62205   1.00
H2       0.76595    -0.10046   0.63650   1.00
H2       0.69652    -0.10038   0.64814   1.00
H2       0.87187    0.00458    0.62947   1.00
H2       0.82772    0.02610    0.61159   1.00
H2       0.87898    0.08523    0.63043   1.00
C4       0.47294    0.49783    0.61716   1.00
C4       0.49835    0.47235    0.63269   1.00
C3       0.51444    0.54325    0.60168   1.00
C3       0.56862    0.49450    0.63539   1.00
C3       0.40236    0.47795    0.61714   1.00
C3       0.45140    0.42175    0.64636   1.00
C2       0.41834    0.54974    0.58689   1.00
C2       0.54583    0.41945    0.66476   1.00
C3       0.48802    0.56882    0.58702   1.00
C3       0.59169    0.46834    0.65086   1.00
C3       0.37645    0.50331    0.60199   1.00
C3       0.47594    0.39820    0.66238   1.00
H1       0.56503    0.55891    0.60056   1.00
H1       0.60515    0.53059    0.62627   1.00
C5       0.35807    0.43265    0.63218   1.00
C5       0.38030    0.39532    0.64412   1.00
H1       0.52058    0.60191    0.57629   1.00
H1       0.64303    0.48582    0.65197   1.00
H1       0.32536    0.48712    0.60183   1.00
H1       0.44209    0.36524    0.67281   1.00
O3       0.29309    0.42259    0.63417   1.00
O3       0.33367    0.33748    0.65444   1.00
Si1      0.27841    0.46854    0.65027   1.00
Si1      0.31116    0.26288    0.64472   1.00
C6       0.19357    0.44066    0.64285   1.00
C6       0.28170    0.43951    0.67483   1.00
C6       0.33107    0.55715    0.64649   1.00
C6       0.34995    0.25970    0.62179   1.00
C6       0.33145    0.22252    0.66400   1.00
C6       0.22181    0.21938    0.64200   1.00
C6       0.18098    0.44003    0.61944   1.00
H2       0.16738    0.38711    0.64739   1.00
C6       0.15186    0.47157    0.65270   1.00
H2       0.26928    0.38711    0.67189   1.00
C6       0.35175    0.47384    0.68619   1.00
C6       0.22867    0.43433    0.69099   1.00
H2       0.32709    0.56198    0.63013   1.00
C6       0.30810    0.60510    0.65657   1.00
C6       0.40932    0.59208    0.65146   1.00
C6       0.34377    0.29829    0.60297   1.00
C6       0.42534    0.27453    0.62203   1.00
H2       0.32048    0.20571    0.61785   1.00
H2       0.38708    0.24988    0.66415   1.00
C6       0.30979    0.22966    0.68602   1.00
C6       0.30828    0.14544    0.66099   1.00
H2       0.20283    0.19948    0.65715   1.00
C6       0.18927    0.26397    0.63665   1.00
C6       0.18822    0.15647    0.62738   1.00
H2       0.19881    0.40987    0.61131   1.00
H2       0.20725    0.49165    0.61319   1.00
H2       0.12665    0.41730    0.61606   1.00
H2       0.09792    0.43265    0.65363   1.00
H2       0.16882    0.49078    0.66796   1.00
H2       0.15446    0.51339    0.64375   1.00
H2       0.35036    0.44246    0.69899   1.00
H2       0.39319    0.47990    0.67643   1.00
H2       0.36431    0.52371    0.69218   1.00
H2       0.17646    0.40233    0.68563   1.00
H2       0.23276    0.41082    0.70502   1.00
H2       0.23660    0.48470    0.69484   1.00
H2       0.29936    0.59512    0.67282   1.00
H2       0.34607    0.65906    0.65462   1.00
H2       0.26191    0.59899    0.64959   1.00
H2       0.42013    0.60773    0.66732   1.00
H2       0.43102    0.55985    0.64843   1.00
H2       0.43777    0.63802    0.64224   1.00
H2       0.38230    0.35219    0.60319   1.00
H2       0.35109    0.27701    0.58894   1.00
H2       0.29386    0.29416    0.60199   1.00
H2       0.43860    0.26122    0.60744   1.00
H2       0.46184    0.32808    0.62472   1.00
H2       0.43336    0.24438    0.63344   1.00
H2       0.33448    0.21333    0.69718   1.00
H2       0.32534    0.28263    0.68955   1.00
H2       0.25480    0.19882    0.68824   1.00
H2       0.32316    0.13589    0.64615   1.00
H2       0.33219    0.12887    0.67234   1.00
H2       0.25311    0.11327    0.66261   1.00
H2       0.20648    0.28911    0.62199   1.00
H2       0.13363    0.23382    0.63642   1.00
H2       0.20308    0.30325    0.64807   1.00
H2       0.13286    0.12796    0.62937   1.00
H2       0.19857    0.17219    0.61150   1.00
H2       0.20644    0.12092    0.63034   1.00
C4       0.47058    -0.03136   0.11910   1.00
C4       0.49661    0.02123    0.13413   1.00
C3       0.49749    -0.07521   0.11559   1.00
C3       0.55589    0.03928    0.14584   1.00
C3       0.41520    -0.04042   0.10659   1.00
C3       0.46179    0.05812    0.13783   1.00
C2       0.41729    -0.13428   0.08775   1.00
C2       0.54688    0.12928    0.16390   1.00
C3       0.47188    -0.12500   0.10028   1.00
C3       0.58001    0.09138    0.16045   1.00
C3       0.38925    -0.09179   0.09148   1.00
C3       0.48858    0.11237    0.15200   1.00
H1       0.53634    -0.07241   0.12411   1.00
H1       0.58355    0.01541    0.14401   1.00
C5       0.38592    0.00170    0.10932   1.00
C5       0.40082    0.04119    0.12727   1.00
H1       0.49371    -0.15490   0.09835   1.00
H1       0.62280    0.10181    0.16859   1.00
H1       0.34829    -0.09895   0.08300   1.00
H1       0.46555    0.14111    0.15354   1.00
O3       0.34060    0.00060    0.09517   1.00
O3       0.35934    0.06650    0.13336   1.00
Si1      0.36816    0.05564    0.07658   1.00
Si1      0.30327    0.02669    0.15120   1.00
C6       0.29107    0.01992    0.06279   1.00
C6       0.38884    0.13559    0.08686   1.00
C6       0.43365    0.05482    0.06227   1.00
C6       0.30036    -0.04552   0.16250   1.00
C6       0.32459    0.09016    0.16963   1.00
C6       0.22276    0.00503    0.14122   1.00
C6       0.25395    -0.05923   0.05953   1.00
H2       0.25804    0.02853    0.07296   1.00
C6       0.28696    0.05027    0.04177   1.00
H2       0.35646    0.12091    0.10031   1.00
C6       0.46324    0.18321    0.09465   1.00
C6       0.37066    0.18318    0.07440   1.00
H2       0.41299    0.00035    0.05959   1.00
C6       0.44910    0.08909    0.04080   1.00
C6       0.50606    0.08215    0.07203   1.00
C6       0.28842    -0.10606   0.14842   1.00
C6       0.35727    -0.03558   0.17792   1.00
H2       0.25465    -0.06547   0.17190   1.00
H2       0.37295    0.09851    0.17575   1.00
C6       0.33948    0.16144    0.16164   1.00
C6       0.27525    0.07239    0.18811   1.00
H2       0.22057    0.05195    0.14258   1.00
C6       0.21172    -0.01320   0.11821   1.00
C6       0.15784    -0.05144   0.15233   1.00
H2       0.24433    -0.08640   0.07393   1.00
H2       0.28421    -0.07366   0.05000   1.00
H2       0.20434    -0.07789   0.05226   1.00
H2       0.23654    0.04486    0.03981   1.00
H2       0.32440    0.10408    0.04022   1.00
H2       0.29418    0.02366    0.02903   1.00
H2       0.46559    0.22346    0.10438   1.00
H2       0.48172    0.15570    0.10375   1.00
H2       0.49843    0.20788    0.08205   1.00
H2       0.31649    0.15757    0.07066   1.00
H2       0.38128    0.22863    0.08308   1.00
H2       0.40034    0.20029    0.06040   1.00
H2       0.45902    0.14143    0.04173   1.00
H2       0.49338    0.09039    0.03367   1.00
H2       0.40710    0.06051    0.03038   1.00
H2       0.53869    0.13705    0.06997   1.00
H2       0.50444    0.07222    0.08815   1.00
H2       0.53198    0.05772    0.06489   1.00
H2       0.33569    -0.09751   0.14146   1.00
H2       0.26804    -0.15335   0.15713   1.00
H2       0.25197    -0.11498   0.13638   1.00
H2       0.34331    -0.08353   0.18567   1.00
H2       0.40604    -0.01904   0.17054   1.00
H2       0.36476    0.00114    0.18977   1.00
H2       0.36329    0.20006    0.17352   1.00
H2       0.37491    0.17847    0.14884   1.00
H2       0.29308    0.16080    0.15681   1.00
H2       0.26355    0.02404    0.19509   1.00
H2       0.29868    0.11156    0.19986   1.00
H2       0.22747    0.06963    0.18367   1.00
H2       0.21535    -0.05833   0.11471   1.00
H2       0.16217    -0.02203   0.11299   1.00
H2       0.25022    0.02892    0.10937   1.00
H2       0.11180    -0.05276   0.14666   1.00
H2       0.15168    -0.10200   0.15000   1.00
H2       0.15984    -0.04209   0.16860   1.00
C4       1.02837    0.49316    0.11818   1.00
C4       0.97730    0.46792    0.13366   1.00
C3       1.07983    0.47502    0.11661   1.00
C3       0.97630    0.42706    0.15015   1.00
C3       1.02916    0.54002    0.10355   1.00
C3       0.92386    0.48390    0.13276   1.00
C2       1.13189    0.54906    0.08703   1.00
C2       0.87311    0.42013    0.16462   1.00
C3       1.13041    0.50247    0.10155   1.00
C3       0.92530    0.40328    0.16510   1.00
C3       1.07986    0.56614    0.08824   1.00
C3       0.87463    0.46187    0.14844   1.00
H1       1.08194    0.44116    0.12633   1.00
H1       1.01283    0.41374    0.15185   1.00
C5       0.97914    0.56024    0.10425   1.00
C5       0.92008    0.52226    0.11633   1.00
H1       1.16662    0.48785    0.10125   1.00
H1       0.92683    0.37342    0.17658   1.00
H1       1.07865    0.59823    0.07751   1.00
H1       0.83928    0.47738    0.14827   1.00
O3       0.98663    0.61360    0.09236   1.00
O3       0.86220    0.52680    0.11300   1.00
Si1      1.02389    0.69082    0.10162   1.00
Si1      0.79940    0.46655    0.10014   1.00
C6       1.02813    0.73340    0.07877   1.00
C6       0.96669    0.69503    0.11890   1.00
C6       1.10609    0.71759    0.11138   1.00
C6       0.80734    0.39662    0.09182   1.00
C6       0.73017    0.43763    0.11692   1.00
C6       0.78354    0.50555    0.07936   1.00
C6       1.05534    0.71240    0.05982   1.00
H2       0.97439    0.71512    0.07559   1.00
C6       1.06413    0.81328    0.07790   1.00
H2       0.91753    0.65491    0.11327   1.00
C6       0.96993    0.67727    0.14166   1.00
C6       0.96118    0.76121    0.11943   1.00
H2       1.12923    0.70324    0.09920   1.00
C6       1.15423    0.79599    0.11479   1.00
C6       1.11394    0.68409    0.13132   1.00
C6       0.86978    0.41157    0.07818   1.00
C6       0.79942    0.34104    0.10747   1.00
H2       0.76283    0.36936    0.08203   1.00
H2       0.74193    0.41149    0.12877   1.00
C6       0.72205    0.49414    0.12812   1.00
C6       0.65805    0.38491    0.10857   1.00
H2       0.75268    0.52567    0.08575   1.00
C6       0.84685    0.56861    0.06997   1.00
C6       0.74169    0.45938    0.06108   1.00
H2       1.02584    0.65752    0.05710   1.00
H2       1.10874    0.72650    0.06178   1.00
H2       1.05144    0.73713    0.04605   1.00
H2       1.03839    0.82886    0.06690   1.00
H2       1.06378    0.83596    0.09240   1.00
H2       1.11720    0.83657    0.07301   1.00
H2       0.92370    0.66760    0.14971   1.00
H2       0.97346    0.63131    0.14329   1.00
H2       1.01322    0.71915    0.14940   1.00
H2       0.94872    0.77287    0.10452   1.00
H2       0.92040    0.75531    0.12961   1.00
H2       1.00863    0.80488    0.12476   1.00
H2       1.12966    0.81719    0.12421   1.00
H2       1.20208    0.80734    0.12216   1.00
H2       1.16924    0.82338    0.10048   1.00
H2       1.11109    0.71002    0.14493   1.00
H2       1.07579    0.63074    0.13291   1.00
H2       1.16363    0.68697    0.13152   1.00
H2       0.91519    0.42531    0.08718   1.00
H2       0.85910    0.36634    0.06938   1.00
H2       0.88194    0.45239    0.06736   1.00
H2       0.79598    0.29682    0.09964   1.00
H2       0.84256    0.35973    0.11779   1.00
H2       0.75300    0.32193    0.11647   1.00
H2       0.68547    0.47188    0.14058   1.00
H2       0.77024    0.53272    0.13480   1.00
H2       0.70396    0.51980    0.11799   1.00
H2       0.65838    0.34226    0.10097   1.00
H2       0.62125    0.36341    0.12101   1.00
H2       0.63921    0.40869    0.09795   1.00
H2       0.88336    0.55552    0.06367   1.00
H2       0.83220    0.59211    0.05799   1.00
H2       0.87287    0.60716    0.08155   1.00
H2       0.72644    0.48716    0.05074   1.00
H2       0.77152    0.44241    0.05236   1.00
H2       0.69496    0.41442    0.06609   1.00
C4       0.50707    0.53488    0.11801   1.00
C4       0.53240    0.50923    0.13352   1.00
C3       0.53188    0.60540    0.11471   1.00
C3       0.58055    0.55109    0.14840   1.00
C3       0.45320    0.48782    0.10520   1.00
C3       0.50882    0.43785    0.13432   1.00
C2       0.45083    0.58257    0.08698   1.00
C2       0.57998    0.45326    0.16467   1.00
C3       0.50431    0.62862    0.09971   1.00
C3       0.60419    0.52400    0.16344   1.00
C3       0.42695    0.51231    0.08990   1.00
C3       0.53107    0.41123    0.15011   1.00
H1       0.57086    0.64197    0.12306   1.00
H1       0.59954    0.60243    0.14884   1.00
C5       0.42610    0.41662    0.10769   1.00
C5       0.46274    0.39329    0.11950   1.00
H1       0.52397    0.68021    0.09812   1.00
H1       0.63945    0.55679    0.17370   1.00
H1       0.38962    0.47803    0.08045   1.00
H1       0.51042    0.35957    0.15125   1.00
O3       0.36710    0.37143    0.09770   1.00
O3       0.44985    0.32710    0.11756   1.00
Si1      0.29351    0.34204    0.10901   1.00
Si1      0.50134    0.31275    0.10383   1.00
C6       0.24188    0.30004    0.08779   1.00
C6       0.28773    0.28322    0.12753   1.00
C6       0.27855    0.40686    0.11800   1.00
C6       0.57307    0.38330    0.09279   1.00
C6       0.52874    0.27178    0.12086   1.00
C6       0.45170    0.25354    0.08496   1.00
C6       0.26110    0.34230    0.06761   1.00
H2       0.25352    0.25937    0.08506   1.00
C6       0.16206    0.26373    0.08916   1.00
H2       0.32208    0.26685    0.12146   1.00
C6       0.31417    0.31009    0.14942   1.00
C6       0.21771    0.21630    0.13064   1.00
H2       0.29248    0.44077    0.10488   1.00
C6       0.20314    0.38603    0.12332   1.00
C6       0.32116    0.45230    0.13641   1.00
C6       0.56054    0.43104    0.07849   1.00
C6       0.63557    0.43124    0.10644   1.00
H2       0.59311    0.35863    0.08296   1.00
H2       0.56148    0.31203    0.13143   1.00
C6       0.47203    0.21436    0.13428   1.00
C6       0.57266    0.24206    0.11210   1.00
H2       0.42888    0.20437    0.09270   1.00
C6       0.39011    0.25894    0.07666   1.00
C6       0.48918    0.24656    0.06593   1.00
H2       0.31429    0.36120    0.06347   1.00
H2       0.25342    0.38610    0.06897   1.00
H2       0.23018    0.31105    0.05492   1.00
H2       0.13900    0.21881    0.07934   1.00
H2       0.14289    0.24683    0.10442   1.00
H2       0.14245    0.29656    0.08406   1.00
H2       0.32132    0.27284    0.15802   1.00
H2       0.36340    0.35686    0.14926   1.00
H2       0.27794    0.31931    0.15778   1.00
H2       0.19911    0.18779    0.11651   1.00
H2       0.22225    0.18195    0.14138   1.00
H2       0.17933    0.22750    0.13658   1.00
H2       0.18094    0.34343    0.13398   1.00
H2       0.19943    0.42820    0.13008   1.00
H2       0.17155    0.37206    0.10980   1.00
H2       0.29798    0.42947    0.15096   1.00
H2       0.37308    0.46200    0.13680   1.00
H2       0.32424    0.50203    0.13569   1.00
H2       0.55454    0.46891    0.08701   1.00
H2       0.60390    0.45895    0.06828   1.00
H2       0.51562    0.40271    0.06900   1.00
H2       0.67907    0.46615    0.09708   1.00
H2       0.62453    0.46256    0.11650   1.00
H2       0.65293    0.40282    0.11563   1.00
H2       0.49500    0.20028    0.14659   1.00
H2       0.43952    0.23146    0.14136   1.00
H2       0.43958    0.16842    0.12553   1.00
H2       0.61503    0.27953    0.10295   1.00
H2       0.59479    0.22702    0.12442   1.00
H2       0.54193    0.19690    0.10281   1.00
H2       0.40625    0.30758    0.06915   1.00
H2       0.35975    0.21806    0.06593   1.00
H2       0.35652    0.25423    0.08907   1.00
H2       0.45479    0.20158    0.05701   1.00
H2       0.50781    0.29100    0.05601   1.00
H2       0.53236    0.24051    0.07021   1.00
C4       0.63557    0.80447    0.71432   1.00
C4       0.68818    0.83038    0.69930   1.00
C3       0.59645    0.83569    0.71923   1.00
C3       0.71109    0.89329    0.68904   1.00
C3       0.62156    0.74460    0.72535   1.00
C3       0.71996    0.79164    0.69407   1.00
C2       0.53238    0.75084    0.74559   1.00
C2       0.79594    0.88001    0.66944   1.00
C3       0.54654    0.80988    0.73451   1.00
C3       0.76304    0.91715    0.67438   1.00
C3       0.57012    0.71864    0.74045   1.00
C3       0.77420    0.81798    0.67990   1.00
H1       0.60290    0.87796    0.71181   1.00
H1       0.69102    0.92383    0.69200   1.00
C5       0.65881    0.71089    0.72118   1.00
C5       0.69797    0.72716    0.70312   1.00
H1       0.52019    0.83490    0.73750   1.00
H1       0.77711    0.96271    0.66733   1.00
H1       0.55933    0.67459    0.74784   1.00
H1       0.79933    0.79173    0.67728   1.00
O3       0.65328    0.66034    0.73401   1.00
O3       0.71816    0.68316    0.69549   1.00
Si1      0.70787    0.67930    0.75250   1.00
Si1      0.67532    0.63292    0.67673   1.00
C6       0.66647    0.59900    0.76459   1.00
C6       0.78587    0.69594    0.74164   1.00
C6       0.71309    0.74399    0.76863   1.00
C6       0.60666    0.63940    0.66645   1.00
C6       0.73786    0.65377    0.65801   1.00
C6       0.64700    0.54869    0.68471   1.00
C6       0.58778    0.56693    0.76796   1.00
H2       0.67166    0.56635    0.75339   1.00
C6       0.69459    0.58671    0.78497   1.00
H2       0.76906    0.66693    0.72754   1.00
C6       0.83823    0.77084    0.73528   1.00
C6       0.82915    0.66952    0.75284   1.00
H2       0.65938    0.72689    0.77152   1.00
C6       0.74677    0.75157    0.78994   1.00
C6       0.74602    0.81920    0.76054   1.00
C6       0.54785    0.62913    0.68106   1.00
C6       0.62170    0.70151    0.65255   1.00
H2       0.58352    0.59602    0.65609   1.00
H2       0.75044    0.70482    0.65316   1.00
C6       0.80682    0.66066    0.66533   1.00
C6       0.71658    0.60865    0.63846   1.00
H2       0.69135    0.54239    0.68259   1.00
C6       0.62832    0.53322    0.70760   1.00
C6       0.58740    0.48914    0.67264   1.00
H2       0.56128    0.56301    0.75375   1.00
H2       0.57680    0.59740    0.77854   1.00
H2       0.56527    0.51525    0.77408   1.00
H2       0.68466    0.53426    0.78557   1.00
H2       0.74920    0.62028    0.78677   1.00
H2       0.66983    0.59354    0.79826   1.00
H2       0.87680    0.77196    0.72505   1.00
H2       0.81400    0.79488    0.72714   1.00
H2       0.86480    0.80206    0.74846   1.00
H2       0.79966    0.61460    0.75541   1.00
H2       0.87343    0.67848    0.74381   1.00
H2       0.84800    0.69535    0.76738   1.00
H2       0.79741    0.75725    0.78852   1.00
H2       0.75209    0.79576    0.79829   1.00
H2       0.71552    0.70795    0.79957   1.00
H2       0.80120    0.84754    0.76270   1.00
H2       0.73667    0.82242    0.74458   1.00
H2       0.72518    0.84668    0.76876   1.00
H2       0.56034    0.67580    0.68920   1.00
H2       0.50115    0.61447    0.67250   1.00
H2       0.53577    0.58906    0.69215   1.00
H2       0.57496    0.69336    0.64515   1.00
H2       0.64190    0.74889    0.66104   1.00
H2       0.65743    0.70882    0.64041   1.00
H2       0.84590    0.68478    0.65360   1.00
H2       0.82615    0.69277    0.67884   1.00
H2       0.80175    0.61124    0.66884   1.00
H2       0.66967    0.60269    0.63189   1.00
H2       0.75615    0.63229    0.62683   1.00
H2       0.70938    0.55809    0.64158   1.00
H2       0.58576    0.54033    0.71187   1.00
H2       0.61517    0.48119    0.71153   1.00
H2       0.67182    0.56717    0.71687   1.00
H2       0.58172    0.43996    0.67700   1.00
H2       0.53879    0.48686    0.67554   1.00
H2       0.59671    0.49438    0.65634   1.00
C4       0.16893    0.36151    0.71518   1.00
C4       0.14150    0.30918    0.70009   1.00
C3       0.21425    0.36536    0.73069   1.00
C3       0.15166    0.25216    0.70008   1.00
C3       0.14949    0.41254    0.71511   1.00
C3       0.10173    0.31357    0.68398   1.00
C2       0.21949    0.46702    0.74576   1.00
C2       0.08302    0.20466    0.66927   1.00
C3       0.23855    0.41641    0.74563   1.00
C3       0.12378    0.20166    0.68500   1.00
C3       0.17557    0.46435    0.73009   1.00
C3       0.07168    0.26065    0.66943   1.00
H1       0.23112    0.33134    0.73154   1.00
H1       0.17926    0.24542    0.71110   1.00
C5       0.10435    0.41165    0.70002   1.00
C5       0.09161    0.37034    0.68257   1.00
H1       0.27082    0.41633    0.75655   1.00
H1       0.13332    0.16189    0.68567   1.00
H1       0.16268    0.50170    0.72951   1.00
H1       0.03980    0.26234    0.65876   1.00
O3       0.07689    0.45365    0.70194   1.00
O3       0.06524    0.38249    0.66518   1.00
Si1      0.00271    0.42513    0.71281   1.00
Si1      0.11692    0.42413    0.64656   1.00
C6       0.00374    0.50355    0.71374   1.00
C6       -0.05972   0.36801    0.69575   1.00
C6       -0.00132   0.39232    0.73738   1.00
C6       0.20405    0.44918    0.64921   1.00
C6       0.08205    0.36755    0.62604   1.00
C6       0.10811    0.49572    0.64149   1.00
C6       0.07114    0.56600    0.72188   1.00
H2       0.00144    0.51422    0.69769   1.00
C6       -0.05562   0.50917    0.72415   1.00
H2       -0.03407   0.38597    0.68117   1.00
C6       -0.08130   0.29080    0.69694   1.00
C6       -0.12814   0.36893    0.69379   1.00
H2       0.04554    0.43233    0.74431   1.00
C6       -0.06101   0.38335    0.75147   1.00
C6       -0.00026   0.32386    0.74002   1.00
C6       0.24376    0.49478    0.66778   1.00
C6       0.22679    0.39449    0.64720   1.00
H2       0.22675    0.48159    0.63594   1.00
H2       0.09220    0.32650    0.62977   1.00
C6       0.00284    0.33226    0.62341   1.00
C6       0.11383    0.39443    0.60462   1.00
H2       0.06217    0.47548    0.63219   1.00
C6       0.09355    0.52895    0.66012   1.00
C6       0.16574    0.55586    0.62905   1.00
H2       0.11555    0.57335    0.71328   1.00
H2       0.07956    0.55928    0.73783   1.00
H2       0.06958    0.61331    0.72051   1.00
H2       -0.06366   0.54711    0.71629   1.00
H2       -0.10381   0.46138    0.72403   1.00
H2       -0.04416   0.52585    0.73992   1.00
H2       -0.10842   0.26397    0.68318   1.00
H2       -0.03751   0.28342    0.69823   1.00
H2       -0.11527   0.26589    0.70977   1.00
H2       -0.11899   0.41968    0.68991   1.00
H2       -0.16011   0.33505    0.68165   1.00
H2       -0.15755   0.35216    0.70784   1.00
H2       -0.11037   0.35288    0.74406   1.00
H2       -0.06223   0.35839    0.76580   1.00
H2       -0.05512   0.43233    0.75575   1.00
H2       -0.05126   0.27923    0.73912   1.00
H2       0.03079    0.31690    0.72884   1.00
H2       0.02047    0.32263    0.75490   1.00
H2       0.23611    0.46447    0.68138   1.00
H2       0.29858    0.52266    0.66474   1.00
H2       0.22890    0.53260    0.67117   1.00
H2       0.28238    0.41906    0.64633   1.00
H2       0.21086    0.35997    0.66011   1.00
H2       0.20715    0.36411    0.63343   1.00
H2       -0.01515   0.29001    0.61263   1.00
H2       -0.02365   0.31071    0.63772   1.00
H2       -0.01294   0.36759    0.61781   1.00
H2       0.16928    0.41825    0.60487   1.00
H2       0.09503    0.35229    0.59377   1.00
H2       0.10039    0.43134    0.59880   1.00
H2       0.13515    0.54909    0.67109   1.00
H2       0.08482    0.57033    0.65554   1.00
H2       0.04769    0.49123    0.66781   1.00
H2       0.14960    0.59190    0.62429   1.00
H2       0.21225    0.58409    0.63802   1.00
H2       0.17835    0.53784    0.61529   1.00
C4       0.19267    0.83097    0.71512   1.00
C4       0.16771    0.85837    0.70004   1.00
C3       0.15061    0.78308    0.73003   1.00
C3       0.09956    0.84545    0.69949   1.00
C3       0.26377    0.85310    0.71567   1.00
C3       0.21284    0.90101    0.68451   1.00
C2       0.24761    0.78054    0.74574   1.00
C2       0.12154    0.91695    0.66929   1.00
C3       0.17733    0.75883    0.74499   1.00
C3       0.07690    0.87339    0.68443   1.00
C3       0.28953    0.82706    0.73066   1.00
C3       0.18977    0.93101    0.67000   1.00
H1       0.09929    0.76424    0.73041   1.00
H1       0.06448    0.81571    0.71008   1.00
C5       0.30863    0.90088    0.70120   1.00
C5       0.28086    0.91404    0.68364   1.00
H1       0.14452    0.72463    0.75547   1.00
H1       0.02690    0.86181    0.68469   1.00
H1       0.34032    0.84195    0.73052   1.00
H1       0.22383    0.96486    0.65977   1.00
O3       0.37811    0.93057    0.70378   1.00
O3       0.32098    0.94350    0.66670   1.00
Si1      0.42015    1.00378    0.71544   1.00
Si1      0.31519    0.89474    0.64769   1.00
C6       0.49912    1.00612    0.71691   1.00
C6       0.42468    1.06693    0.69883   1.00
C6       0.38778    1.00362    0.73982   1.00
C6       0.25544    0.80660    0.64935   1.00
C6       0.29376    0.93017    0.62726   1.00
C6       0.39748    0.90751    0.64326   1.00
C6       0.49620    0.93916    0.72458   1.00
H2       0.51409    1.01079    0.70098   1.00
C6       0.56162    1.06578    0.72815   1.00
H2       0.41963    1.04322    0.68404   1.00
C6       0.36674    1.08538    0.69976   1.00
C6       0.49261    1.13705    0.69780   1.00
H2       0.38212    0.95675    0.74639   1.00
C6       0.43527    1.06254    0.75463   1.00
C6       0.31652    0.99917    0.74195   1.00
C6       0.26114    0.76595    0.66769   1.00
C6       0.17761    0.78117    0.64664   1.00
H2       0.26788    0.78639    0.63601   1.00
H2       0.24151    0.91755    0.63055   1.00
C6       0.33532    1.00977    0.62545   1.00
C6       0.29263    0.90138    0.60562   1.00
H2       0.42270    0.95457    0.63443   1.00
C6       0.44351    0.92171    0.66230   1.00
C6       0.40407    0.85278    0.63048   1.00
H2       0.46135    0.89513    0.71544   1.00
H2       0.47931    0.92843    0.74036   1.00
H2       0.54620    0.94302    0.72356   1.00
H2       0.60910    1.07659    0.72068   1.00
H2       0.55986    1.11287    0.72834   1.00
H2       0.56567    1.05302    0.74387   1.00
H2       0.36737    1.11346    0.68619   1.00
H2       0.31632    1.04020    0.70040   1.00
H2       0.37299    1.11748    0.71286   1.00
H2       0.53595    1.13042    0.69416   1.00
H2       0.49059    1.16958    0.68586   1.00
H2       0.50259    1.16472    0.71211   1.00
H2       0.45316    1.11242    0.74768   1.00
H2       0.40933    1.06102    0.76879   1.00
H2       0.47906    1.05822    0.75918   1.00
H2       0.32082    1.04936    0.74143   1.00
H2       0.28037    0.96844    0.73031   1.00
H2       0.29335    0.97625    0.75653   1.00
H2       0.23610    0.77085    0.68117   1.00
H2       0.23646    0.71158    0.66411   1.00
H2       0.31389    0.78242    0.67154   1.00
H2       0.14855    0.72561    0.64520   1.00
H2       0.15643    0.79441    0.65951   1.00
H2       0.16732    0.80145    0.63294   1.00
H2       0.31095    1.02749    0.61462   1.00
H2       0.33754    1.03421    0.63995   1.00
H2       0.38745    1.02810    0.62031   1.00
H2       0.26282    0.84580    0.60529   1.00
H2       0.26918    0.91995    0.59473   1.00
H2       0.34411    0.91742    0.60024   1.00
H2       0.42224    0.87888    0.67284   1.00
H2       0.49482    0.93300    0.65814   1.00
H2       0.44887    0.96597    0.67033   1.00
H2       0.45717    0.87141    0.62619   1.00
H2       0.38649    0.80553    0.63901   1.00
H2       0.37492    0.84069    0.61642   1.00
