data_IRMOF10_interpen_symm_ligand2lp_label_e.

_audit_creation_method             'generated by an auxiliary program of Tobunporous'

_symmetry_space_group_name_H-M     'P 1'
_symmetry_Int_Tables_number        1
_symmetry_cell_setting             triclinic

_cell_length_a                    22.6523
_cell_length_b                    22.6523
_cell_length_c                    65.9502
_cell_angle_alpha                 90.0000
_cell_angle_beta                  90.0000
_cell_angle_gamma                 120.0000

loop_
_atom_site_label
_atom_site_fract_x
_atom_site_fract_y
_atom_site_fract_z
_atom_site_occupancy
O1       0.00000    -0.00000   0.62500   1.00
Zn      0.00000    -0.00000   0.59589   1.00
Zn      0.94848    1.04288    0.63392   1.00
Zn      0.09439    0.05152    0.63392   1.00
Zn      -0.04288   0.90561    0.63392   1.00
O2       0.93860    0.02610    0.58587   1.00
O2       0.08750    0.06140    0.58587   1.00
O2       -0.02610   0.91250    0.58587   1.00
O2       0.91305    0.07161    0.61181   1.00
O2       0.00462    0.12022    0.65110   1.00
O2       0.87413    0.98074    0.65071   1.00
O2       0.15856    0.08695    0.61181   1.00
O2       0.10660    0.12587    0.65071   1.00
O2       0.11559    0.99538    0.65110   1.00
O2       -0.07161   0.84144    0.61181   1.00
O2       0.87978    0.88441    0.65110   1.00
O2       0.01926    0.89340    0.65071   1.00
C1       0.91390    0.06020    0.59358   1.00
C1       0.14630    0.08610    0.59358   1.00
C1       -0.06020   0.85370    0.59358   1.00
C1       0.06663    0.14397    0.65673   1.00
C1       0.85603    0.92267    0.65673   1.00
C1       0.07733    0.93337    0.65673   1.00
O1       -0.00000   0.00000    0.87500   1.00
Zn      -0.00000   0.00000    0.90411   1.00
Zn      1.04288    0.94848    0.86608   1.00
Zn      0.05152    0.09439    0.86608   1.00
Zn      0.90561    -0.04288   0.86608   1.00
O2       0.02610    0.93860    0.91413   1.00
O2       0.06140    0.08750    0.91413   1.00
O2       0.91250    -0.02610   0.91413   1.00
O2       0.07161    0.91305    0.88819   1.00
O2       0.12022    0.00462    0.84890   1.00
O2       0.98074    0.87413    0.84929   1.00
O2       0.08695    0.15856    0.88819   1.00
O2       0.12587    0.10660    0.84929   1.00
O2       0.99538    0.11559    0.84890   1.00
O2       0.84144    -0.07161   0.88819   1.00
O2       0.88441    0.87978    0.84890   1.00
O2       0.89340    0.01926    0.84929   1.00
C1       0.06020    0.91390    0.90642   1.00
C1       0.08610    0.14630    0.90642   1.00
C1       0.85370    -0.06020   0.90642   1.00
C1       0.14397    0.06663    0.84327   1.00
C1       0.92267    0.85603    0.84327   1.00
C1       0.93337    0.07733    0.84327   1.00
O1       0.00000    0.00000    0.37500   1.00
Zn      0.00000    0.00000    0.40411   1.00
Zn      0.05152    -0.04288   0.36608   1.00
Zn      0.90561    0.94848    0.36608   1.00
Zn      1.04288    0.09439    0.36608   1.00
O2       0.06140    -0.02610   0.41413   1.00
O2       0.91250    0.93860    0.41413   1.00
O2       0.02610    0.08750    0.41413   1.00
O2       0.08695    -0.07161   0.38819   1.00
O2       0.99538    0.87978    0.34890   1.00
O2       0.12587    0.01926    0.34929   1.00
O2       0.84144    0.91305    0.38819   1.00
O2       0.89340    0.87413    0.34929   1.00
O2       0.88441    0.00462    0.34890   1.00
O2       0.07161    0.15856    0.38819   1.00
O2       0.12022    0.11559    0.34890   1.00
O2       0.98074    0.10660    0.34929   1.00
C1       0.08610    -0.06020   0.40642   1.00
C1       0.85370    0.91390    0.40642   1.00
C1       0.06020    0.14630    0.40642   1.00
C1       0.93337    0.85603    0.34327   1.00
C1       0.14397    0.07733    0.34327   1.00
C1       0.92267    0.06663    0.34327   1.00
O1       0.00000    0.00000    0.12500   1.00
Zn      0.00000    0.00000    0.09589   1.00
Zn      -0.04288   0.05152    0.13392   1.00
Zn      0.94848    0.90561    0.13392   1.00
Zn      0.09439    1.04288    0.13392   1.00
O2       -0.02610   0.06140    0.08587   1.00
O2       0.93860    0.91250    0.08587   1.00
O2       0.08750    0.02610    0.08587   1.00
O2       -0.07161   0.08695    0.11181   1.00
O2       0.87978    0.99538    0.15110   1.00
O2       0.01926    0.12587    0.15071   1.00
O2       0.91305    0.84144    0.11181   1.00
O2       0.87413    0.89340    0.15071   1.00
O2       0.00462    0.88441    0.15110   1.00
O2       0.15856    0.07161    0.11181   1.00
O2       0.11559    0.12022    0.15110   1.00
O2       0.10660    0.98074    0.15071   1.00
C1       -0.06020   0.08610    0.09358   1.00
C1       0.91390    0.85370    0.09358   1.00
C1       0.14630    0.06020    0.09358   1.00
C1       0.85603    0.93337    0.15673   1.00
C1       0.07733    0.14397    0.15673   1.00
C1       0.06663    0.92267    0.15673   1.00
O1       0.66667    0.33333    0.95833   1.00
Zn      0.66667    0.33333    0.92922   1.00
Zn      0.61515    0.37621    0.96725   1.00
Zn      0.76106    0.38485    0.96725   1.00
Zn      -0.37621   0.23894    0.96725   1.00
O2       0.60527    0.35943    0.91920   1.00
O2       0.75417    0.39473    0.91920   1.00
O2       0.64057    0.24583    0.91920   1.00
O2       0.57972    0.40494    0.94514   1.00
O2       0.67129    0.45355    0.98443   1.00
O2       0.54080    0.31407    0.98404   1.00
O2       0.82523    0.42028    0.94514   1.00
O2       0.77327    0.45920    0.98404   1.00
O2       -0.21774   0.32871    0.98443   1.00
O2       0.59506    0.17477    0.94514   1.00
O2       0.54645    0.21774    0.98443   1.00
O2       -0.31407   0.22673    0.98404   1.00
C1       0.58057    0.39353    0.92691   1.00
C1       0.81297    0.41943    0.92691   1.00
C1       0.60647    0.18703    0.92691   1.00
C1       0.73330    0.47730    0.99006   1.00
C1       0.52270    0.25600    0.99006   1.00
C1       -0.25600   0.26670    0.99006   1.00
O1       0.66667    0.33333    0.20833   1.00
Zn      0.66667    0.33333    0.23744   1.00
Zn      0.70954    0.28182    0.19942   1.00
Zn      0.71818    0.42773    0.19942   1.00
Zn      0.57227    0.29046    0.19942   1.00
O2       0.69277    0.27193    0.24746   1.00
O2       0.72807    0.42083    0.24746   1.00
O2       0.57917    0.30723    0.24746   1.00
O2       0.73828    0.24638    0.22152   1.00
O2       0.78688    0.33796    0.18224   1.00
O2       0.64740    0.20747    0.18263   1.00
O2       0.75362    0.49189    0.22152   1.00
O2       0.79253    0.43994    0.18263   1.00
O2       0.66204    0.44893    0.18224   1.00
O2       0.50811    0.26172    0.22152   1.00
O2       0.55107    0.21312    0.18224   1.00
O2       0.56006    0.35260    0.18263   1.00
C1       0.72687    0.24723    0.23975   1.00
C1       0.75277    0.47963    0.23975   1.00
C1       0.52037    0.27313    0.23975   1.00
C1       0.81063    0.39997    0.17661   1.00
C1       0.58933    0.18937    0.17661   1.00
C1       0.60003    0.41067    0.17661   1.00
O1       0.66667    0.33333    0.70833   1.00
Zn      0.66667    0.33333    0.73744   1.00
Zn      0.71818    0.29046    0.69942   1.00
Zn      0.57227    0.28182    0.69942   1.00
Zn      0.70954    0.42773    0.69942   1.00
O2       0.72807    0.30723    0.74746   1.00
O2       0.57917    0.27193    0.74746   1.00
O2       0.69277    0.42083    0.74746   1.00
O2       0.75362    0.26172    0.72152   1.00
O2       0.66204    0.21312    0.68224   1.00
O2       0.79253    0.35260    0.68263   1.00
O2       0.50811    0.24638    0.72152   1.00
O2       0.56006    0.20747    0.68263   1.00
O2       0.55107    0.33796    0.68224   1.00
O2       0.73828    0.49189    0.72152   1.00
O2       0.78688    0.44893    0.68224   1.00
O2       0.64740    0.43994    0.68263   1.00
C1       0.75277    0.27313    0.73975   1.00
C1       0.52037    0.24723    0.73975   1.00
C1       0.72687    0.47963    0.73975   1.00
C1       0.60003    0.18937    0.67661   1.00
C1       0.81063    0.41067    0.67661   1.00
C1       0.58933    0.39997    0.67661   1.00
O1       0.66667    0.33333    0.45833   1.00
Zn      0.66667    0.33333    0.42922   1.00
Zn      -0.37621   0.38485    0.46725   1.00
Zn      0.61515    0.23894    0.46725   1.00
Zn      0.76106    0.37621    0.46725   1.00
O2       0.64057    0.39473    0.41920   1.00
O2       0.60527    0.24583    0.41920   1.00
O2       0.75417    0.35943    0.41920   1.00
O2       0.59506    0.42028    0.44514   1.00
O2       0.54645    0.32871    0.48443   1.00
O2       -0.31407   0.45920    0.48404   1.00
O2       0.57972    0.17477    0.44514   1.00
O2       0.54080    0.22673    0.48404   1.00
O2       0.67129    0.21774    0.48443   1.00
O2       0.82523    0.40494    0.44514   1.00
O2       -0.21774   0.45355    0.48443   1.00
O2       0.77327    0.31407    0.48404   1.00
C1       0.60647    0.41943    0.42691   1.00
C1       0.58057    0.18703    0.42691   1.00
C1       0.81297    0.39353    0.42691   1.00
C1       0.52270    0.26670    0.49006   1.00
C1       -0.25600   0.47730    0.49006   1.00
C1       0.73330    0.25600    0.49006   1.00
O1       0.33333    0.66667    0.29167   1.00
Zn      0.33333    0.66667    0.26256   1.00
Zn      0.28182    0.70954    0.30058   1.00
Zn      0.42773    0.71818    0.30058   1.00
Zn      0.29046    0.57227    0.30058   1.00
O2       0.27193    0.69277    0.25254   1.00
O2       0.42083    0.72807    0.25254   1.00
O2       0.30723    0.57917    0.25254   1.00
O2       0.24638    0.73828    0.27848   1.00
O2       0.33796    0.78688    0.31776   1.00
O2       0.20747    0.64740    0.31737   1.00
O2       0.49189    0.75362    0.27848   1.00
O2       0.43994    0.79253    0.31737   1.00
O2       0.44893    0.66204    0.31776   1.00
O2       0.26172    0.50811    0.27848   1.00
O2       0.21312    0.55107    0.31776   1.00
O2       0.35260    0.56006    0.31737   1.00
C1       0.24723    0.72687    0.26025   1.00
C1       0.47963    0.75277    0.26025   1.00
C1       0.27313    0.52037    0.26025   1.00
C1       0.39997    0.81063    0.32339   1.00
C1       0.18937    0.58933    0.32339   1.00
C1       0.41067    0.60003    0.32339   1.00
O1       0.33333    0.66667    0.54167   1.00
Zn      0.33333    0.66667    0.57078   1.00
Zn      0.37621    0.61515    0.53275   1.00
Zn      0.38485    0.76106    0.53275   1.00
Zn      0.23894    -0.37621   0.53275   1.00
O2       0.35943    0.60527    0.58080   1.00
O2       0.39473    0.75417    0.58080   1.00
O2       0.24583    0.64057    0.58080   1.00
O2       0.40494    0.57972    0.55486   1.00
O2       0.45355    0.67129    0.51557   1.00
O2       0.31407    0.54080    0.51596   1.00
O2       0.42028    0.82523    0.55486   1.00
O2       0.45920    0.77327    0.51596   1.00
O2       0.32871    -0.21774   0.51557   1.00
O2       0.17477    0.59506    0.55486   1.00
O2       0.21774    0.54645    0.51557   1.00
O2       0.22673    -0.31407   0.51596   1.00
C1       0.39353    0.58057    0.57309   1.00
C1       0.41943    0.81297    0.57309   1.00
C1       0.18703    0.60647    0.57309   1.00
C1       0.47730    0.73330    0.50994   1.00
C1       0.25600    0.52270    0.50994   1.00
C1       0.26670    -0.25600   0.50994   1.00
O1       0.33333    0.66667    0.04167   1.00
Zn      0.33333    0.66667    0.07078   1.00
Zn      0.38485    -0.37621   0.03275   1.00
Zn      0.23894    0.61515    0.03275   1.00
Zn      0.37621    0.76106    0.03275   1.00
O2       0.39473    0.64057    0.08080   1.00
O2       0.24583    0.60527    0.08080   1.00
O2       0.35943    0.75417    0.08080   1.00
O2       0.42028    0.59506    0.05486   1.00
O2       0.32871    0.54645    0.01557   1.00
O2       0.45920    -0.31407   0.01596   1.00
O2       0.17477    0.57972    0.05486   1.00
O2       0.22673    0.54080    0.01596   1.00
O2       0.21774    0.67129    0.01557   1.00
O2       0.40494    0.82523    0.05486   1.00
O2       0.45355    -0.21774   0.01557   1.00
O2       0.31407    0.77327    0.01596   1.00
C1       0.41943    0.60647    0.07309   1.00
C1       0.18703    0.58057    0.07309   1.00
C1       0.39353    0.81297    0.07309   1.00
C1       0.26670    0.52270    0.00994   1.00
C1       0.47730    -0.25600   0.00994   1.00
C1       0.25600    0.73330    0.00994   1.00
O1       0.33333    0.66667    0.79167   1.00
Zn      0.33333    0.66667    0.76256   1.00
Zn      0.29046    0.71818    0.80058   1.00
Zn      0.28182    0.57227    0.80058   1.00
Zn      0.42773    0.70954    0.80058   1.00
O2       0.30723    0.72807    0.75254   1.00
O2       0.27193    0.57917    0.75254   1.00
O2       0.42083    0.69277    0.75254   1.00
O2       0.26172    0.75362    0.77848   1.00
O2       0.21312    0.66204    0.81776   1.00
O2       0.35260    0.79253    0.81737   1.00
O2       0.24638    0.50811    0.77848   1.00
O2       0.20747    0.56006    0.81737   1.00
O2       0.33796    0.55107    0.81776   1.00
O2       0.49189    0.73828    0.77848   1.00
O2       0.44893    0.78688    0.81776   1.00
O2       0.43994    0.64740    0.81737   1.00
C1       0.27313    0.75277    0.76025   1.00
C1       0.24723    0.52037    0.76025   1.00
C1       0.47963    0.72687    0.76025   1.00
C1       0.18937    0.60003    0.82339   1.00
C1       0.41067    0.81063    0.82339   1.00
C1       0.39997    0.58933    0.82339   1.00
C2       -0.22962   0.52460    0.50886   1.00
C3       -0.26754   0.53684    0.52167   1.00
H1       -0.31456   0.50800    0.52155   1.00
C3       -0.16098   0.56624    0.50960   1.00
H1       -0.13342   0.55799    0.50098   1.00
C3a      -0.23994   0.59041    0.53512   1.00
H1       -0.26644   0.59889    0.54412   1.00
C3b      -0.13098   0.62053    0.52290   1.00
H1       -0.08387   0.64823    0.52356   1.00
C6       -0.17042   0.63248    0.53615   1.00
C6       -0.13863   0.68994    0.55069   1.00
C3c      -0.12250   0.67971    0.57014   1.00
H1       -0.12667   0.63803    0.57365   1.00
C3d      -0.12718   0.75325    0.54427   1.00
H1       -0.13800   0.76173    0.53140   1.00
C3       -0.09580   0.73378    0.58366   1.00
H1       -0.08386   0.72740    0.59667   1.00
C3       -0.10095   0.80636    0.55933   1.00
H1       -0.09368   0.84913    0.55574   1.00
C2       -0.08630   0.79640    0.57845   1.00
C2       0.47540    0.24578    0.50886   1.00
C3       0.46316    0.19562    0.52167   1.00
H1       0.49200    0.17744    0.52155   1.00
C3       0.43376    0.27278    0.50960   1.00
H1       0.44201    0.30859    0.50098   1.00
C3a      0.40959    0.16965    0.53512   1.00
H1       0.40111    0.13467    0.54412   1.00
C3b      0.37947    0.24849    0.52290   1.00
H1       0.35177    0.26790    0.52356   1.00
C6       0.36752    0.19710    0.53615   1.00
C6       0.31006    0.17143    0.55069   1.00
C3c      0.32029    0.19779    0.57014   1.00
H1       0.36197    0.23530    0.57365   1.00
C3d      0.24675    0.11957    0.54427   1.00
H1       0.23827    0.10027    0.53140   1.00
C3       0.26622    0.17042    0.58366   1.00
H1       0.27260    0.18874    0.59667   1.00
C3       0.19364    0.09269    0.55933   1.00
H1       0.15087    0.05719    0.55574   1.00
C2       0.20360    0.11730    0.57845   1.00
C2       0.75422    0.22962    0.50886   1.00
C3       0.80438    0.26754    0.52167   1.00
H1       0.82256    0.31456    0.52155   1.00
C3       0.72722    0.16098    0.50960   1.00
H1       0.69141    0.13342    0.50098   1.00
C3a      0.83035    0.23994    0.53512   1.00
H1       0.86533    0.26644    0.54412   1.00
C3b      0.75151    0.13098    0.52290   1.00
H1       0.73210    0.08387    0.52356   1.00
C6       0.80290    0.17042    0.53615   1.00
C6       0.82857    0.13863    0.55069   1.00
C3c      0.80221    0.12250    0.57014   1.00
H1       0.76470    0.12667    0.57365   1.00
C3d      0.88043    0.12718    0.54427   1.00
H1       0.89973    0.13800    0.53140   1.00
C3       0.82958    0.09580    0.58366   1.00
H1       0.81126    0.08386    0.59667   1.00
C3       0.90731    0.10095    0.55933   1.00
H1       0.94281    0.09368    0.55574   1.00
C2       0.88270    0.08630    0.57845   1.00
C2       0.52460    -0.22962   0.99114   1.00
C3       0.53684    -0.26754   0.97833   1.00
H1       0.50800    -0.31456   0.97845   1.00
C3       0.56624    -0.16098   0.99040   1.00
H1       0.55799    -0.13342   0.99902   1.00
C3a      0.59041    -0.23994   0.96488   1.00
H1       0.59889    -0.26644   0.95588   1.00
C3b      0.62053    -0.13098   0.97710   1.00
H1       0.64823    -0.08387   0.97644   1.00
C6       0.63248    -0.17042   0.96385   1.00
C6       0.68994    -0.13863   0.94931   1.00
C3c      0.67971    -0.12250   0.92986   1.00
H1       0.63803    -0.12667   0.92635   1.00
C3d      0.75325    -0.12718   0.95573   1.00
H1       0.76173    -0.13800   0.96860   1.00
C3       0.73378    -0.09580   0.91634   1.00
H1       0.72740    -0.08386   0.90333   1.00
C3       0.80636    -0.10095   0.94067   1.00
H1       0.84913    -0.09368   0.94426   1.00
C2       0.79640    -0.08630   0.92155   1.00
C2       0.24578    0.47540    0.99114   1.00
C3       0.19562    0.46316    0.97833   1.00
H1       0.17744    0.49200    0.97845   1.00
C3       0.27278    0.43376    0.99040   1.00
H1       0.30859    0.44201    0.99902   1.00
C3a      0.16965    0.40959    0.96488   1.00
H1       0.13467    0.40111    0.95588   1.00
C3b      0.24849    0.37947    0.97710   1.00
H1       0.26790    0.35177    0.97644   1.00
C6       0.19710    0.36752    0.96385   1.00
C6       0.17143    0.31006    0.94931   1.00
C3c      0.19779    0.32029    0.92986   1.00
H1       0.23530    0.36197    0.92635   1.00
C3d      0.11957    0.24675    0.95573   1.00
H1       0.10027    0.23827    0.96860   1.00
C3       0.17042    0.26622    0.91634   1.00
H1       0.18874    0.27260    0.90333   1.00
C3       0.09269    0.19364    0.94067   1.00
H1       0.05719    0.15087    0.94426   1.00
C2       0.11730    0.20360    0.92155   1.00
C2       0.22962    0.75422    0.99114   1.00
C3       0.26754    0.80438    0.97833   1.00
H1       0.31456    0.82256    0.97845   1.00
C3       0.16098    0.72722    0.99040   1.00
H1       0.13342    0.69141    0.99902   1.00
C3a      0.23994    0.83035    0.96488   1.00
H1       0.26644    0.86533    0.95588   1.00
C3b      0.13098    0.75151    0.97710   1.00
H1       0.08387    0.73210    0.97644   1.00
C6       0.17042    0.80290    0.96385   1.00
C6       0.13863    0.82857    0.94931   1.00
C3c      0.12250    0.80221    0.92986   1.00
H1       0.12667    0.76470    0.92635   1.00
C3d      0.12718    0.88043    0.95573   1.00
H1       0.13800    0.89973    0.96860   1.00
C3       0.09580    0.82958    0.91634   1.00
H1       0.08386    0.81126    0.90333   1.00
C3       0.10095    0.90731    0.94067   1.00
H1       0.09368    0.94281    0.94426   1.00
C2       0.08630    0.88270    0.92155   1.00
C2       0.22962    0.47540    0.49114   1.00
C3       0.26754    0.46316    0.47833   1.00
H1       0.31456    0.49200    0.47845   1.00
C3       0.16098    0.43376    0.49040   1.00
H1       0.13342    0.44201    0.49902   1.00
C3a      0.23994    0.40959    0.46488   1.00
H1       0.26644    0.40111    0.45588   1.00
C3b      0.13098    0.37947    0.47710   1.00
H1       0.08387    0.35177    0.47644   1.00
C6       0.17042    0.36752    0.46385   1.00
C6       0.13863    0.31006    0.44931   1.00
C3c      0.12250    0.32029    0.42986   1.00
H1       0.12667    0.36197    0.42635   1.00
C3d      0.12718    0.24675    0.45573   1.00
H1       0.13800    0.23827    0.46860   1.00
C3       0.09580    0.26622    0.41634   1.00
H1       0.08386    0.27260    0.40333   1.00
C3       0.10095    0.19364    0.44067   1.00
H1       0.09368    0.15087    0.44426   1.00
C2       0.08630    0.20360    0.42155   1.00
C2       0.52460    0.75422    0.49114   1.00
C3       0.53684    0.80438    0.47833   1.00
H1       0.50800    0.82256    0.47845   1.00
C3       0.56624    0.72722    0.49040   1.00
H1       0.55799    0.69141    0.49902   1.00
C3a      0.59041    0.83035    0.46488   1.00
H1       0.59889    0.86533    0.45588   1.00
C3b      0.62053    0.75151    0.47710   1.00
H1       0.64823    0.73210    0.47644   1.00
C6       0.63248    0.80290    0.46385   1.00
C6       0.68994    0.82857    0.44931   1.00
C3c      0.67971    0.80221    0.42986   1.00
H1       0.63803    0.76470    0.42635   1.00
C3d      0.75325    0.88043    0.45573   1.00
H1       0.76173    0.89973    0.46860   1.00
C3       0.73378    0.82958    0.41634   1.00
H1       0.72740    0.81126    0.40333   1.00
C3       0.80636    0.90731    0.44067   1.00
H1       0.84913    0.94281    0.44426   1.00
C2       0.79640    0.88270    0.42155   1.00
C2       0.24578    -0.22962   0.49114   1.00
C3       0.19562    -0.26754   0.47833   1.00
H1       0.17744    -0.31456   0.47845   1.00
C3       0.27278    -0.16098   0.49040   1.00
H1       0.30859    -0.13342   0.49902   1.00
C3a      0.16965    -0.23994   0.46488   1.00
H1       0.13467    -0.26644   0.45588   1.00
C3b      0.24849    -0.13098   0.47710   1.00
H1       0.26790    -0.08387   0.47644   1.00
C6       0.19710    -0.17042   0.46385   1.00
C6       0.17143    -0.13863   0.44931   1.00
C3c      0.19779    -0.12250   0.42986   1.00
H1       0.23530    -0.12667   0.42635   1.00
C3d      0.11957    -0.12718   0.45573   1.00
H1       0.10027    -0.13800   0.46860   1.00
C3       0.17042    -0.09580   0.41634   1.00
H1       0.18874    -0.08386   0.40333   1.00
C3       0.09269    -0.10095   0.44067   1.00
H1       0.05719    -0.09368   0.44426   1.00
C2       0.11730    -0.08630   0.42155   1.00
C2       0.47540    0.22962    0.00886   1.00
C3       0.46316    0.26754    0.02167   1.00
H1       0.49200    0.31456    0.02155   1.00
C3       0.43376    0.16098    0.00960   1.00
H1       0.44201    0.13342    0.00098   1.00
C3a      0.40959    0.23994    0.03512   1.00
H1       0.40111    0.26644    0.04412   1.00
C3b      0.37947    0.13098    0.02290   1.00
H1       0.35177    0.08387    0.02356   1.00
C6       0.36752    0.17042    0.03615   1.00
C6       0.31006    0.13863    0.05069   1.00
C3c      0.32029    0.12250    0.07014   1.00
H1       0.36197    0.12667    0.07365   1.00
C3d      0.24675    0.12718    0.04427   1.00
H1       0.23827    0.13800    0.03140   1.00
C3       0.26622    0.09580    0.08366   1.00
H1       0.27260    0.08386    0.09667   1.00
C3       0.19364    0.10095    0.05933   1.00
H1       0.15087    0.09368    0.05574   1.00
C2       0.20360    0.08630    0.07845   1.00
C2       0.75422    0.52460    0.00886   1.00
C3       0.80438    0.53684    0.02167   1.00
H1       0.82256    0.50800    0.02155   1.00
C3       0.72722    0.56624    0.00960   1.00
H1       0.69141    0.55799    0.00098   1.00
C3a      0.83035    0.59041    0.03512   1.00
H1       0.86533    0.59889    0.04412   1.00
C3b      0.75151    0.62053    0.02290   1.00
H1       0.73210    0.64823    0.02356   1.00
C6       0.80290    0.63248    0.03615   1.00
C6       0.82857    0.68994    0.05069   1.00
C3c      0.80221    0.67971    0.07014   1.00
H1       0.76470    0.63803    0.07365   1.00
C3d      0.88043    0.75325    0.04427   1.00
H1       0.89973    0.76173    0.03140   1.00
C3       0.82958    0.73378    0.08366   1.00
H1       0.81126    0.72740    0.09667   1.00
C3       0.90731    0.80636    0.05933   1.00
H1       0.94281    0.84913    0.05574   1.00
C2       0.88270    0.79640    0.07845   1.00
C2       -0.22962   0.24578    0.00886   1.00
C3       -0.26754   0.19562    0.02167   1.00
H1       -0.31456   0.17744    0.02155   1.00
C3       -0.16098   0.27278    0.00960   1.00
H1       -0.13342   0.30859    0.00098   1.00
C3a      -0.23994   0.16965    0.03512   1.00
H1       -0.26644   0.13467    0.04412   1.00
C3b      -0.13098   0.24849    0.02290   1.00
H1       -0.08387   0.26790    0.02356   1.00
C6       -0.17042   0.19710    0.03615   1.00
C6       -0.13863   0.17143    0.05069   1.00
C3c      -0.12250   0.19779    0.07014   1.00
H1       -0.12667   0.23530    0.07365   1.00
C3d      -0.12718   0.11957    0.04427   1.00
H1       -0.13800   0.10027    0.03140   1.00
C3       -0.09580   0.17042    0.08366   1.00
H1       -0.08386   0.18874    0.09667   1.00
C3       -0.10095   0.09269    0.05933   1.00
H1       -0.09368   0.05719    0.05574   1.00
C2       -0.08630   0.11730    0.07845   1.00
C2       0.43705    0.85793    0.84219   1.00
C3       0.39913    0.87017    0.85500   1.00
H1       0.35211    0.84133    0.85488   1.00
C3       0.50569    0.89957    0.84293   1.00
H1       0.53325    0.89132    0.83431   1.00
C3a      0.42673    0.92374    0.86845   1.00
H1       0.40023    0.93222    0.87745   1.00
C3b      0.53569    0.95386    0.85623   1.00
H1       0.58280    0.98156    0.85689   1.00
C6       0.49625    0.96581    0.86948   1.00
C6       0.52804    0.02327    0.88402   1.00
C3c      0.54417    0.01304    0.90347   1.00
H1       0.54000    -0.02864   0.90698   1.00
C3d      0.53949    0.08658    0.87760   1.00
H1       0.52867    0.09506    0.86473   1.00
C3       0.57087    0.06711    0.91699   1.00
H1       0.58281    0.06073    0.93000   1.00
C3       0.56572    0.13969    0.89266   1.00
H1       0.57299    0.18246    0.88907   1.00
C2       0.58037    0.12973    0.91178   1.00
C2       0.14207    0.57911    0.84219   1.00
C3       0.12983    0.52895    0.85500   1.00
H1       0.15867    0.51077    0.85488   1.00
C3       0.10043    0.60611    0.84293   1.00
H1       0.10868    0.64192    0.83431   1.00
C3a      0.07626    0.50298    0.86845   1.00
H1       0.06778    0.46800    0.87745   1.00
C3b      0.04614    0.58182    0.85623   1.00
H1       0.01844    0.60123    0.85689   1.00
C6       0.03419    0.53043    0.86948   1.00
C6       0.97673    0.50476    0.88402   1.00
C3c      0.98696    0.53112    0.90347   1.00
H1       1.02864    0.56863    0.90698   1.00
C3d      0.91342    0.45290    0.87760   1.00
H1       0.90494    0.43360    0.86473   1.00
C3       0.93289    0.50375    0.91699   1.00
H1       0.93927    0.52207    0.93000   1.00
C3       0.86031    0.42602    0.89266   1.00
H1       0.81754    0.39052    0.88907   1.00
C2       0.87027    0.45063    0.91178   1.00
C2       0.42089    0.56295    0.84219   1.00
C3       0.47105    0.60087    0.85500   1.00
H1       0.48923    0.64789    0.85488   1.00
C3       0.39389    0.49431    0.84293   1.00
H1       0.35808    0.46675    0.83431   1.00
C3a      0.49702    0.57327    0.86845   1.00
H1       0.53200    0.59977    0.87745   1.00
C3b      0.41818    0.46431    0.85623   1.00
H1       0.39877    0.41720    0.85689   1.00
C6       0.46957    0.50375    0.86948   1.00
C6       0.49524    0.47196    0.88402   1.00
C3c      0.46888    0.45583    0.90347   1.00
H1       0.43137    0.46000    0.90698   1.00
C3d      0.54710    0.46051    0.87760   1.00
H1       0.56640    0.47133    0.86473   1.00
C3       0.49625    0.42913    0.91699   1.00
H1       0.47793    0.41719    0.93000   1.00
C3       0.57398    0.43428    0.89266   1.00
H1       0.60948    0.42701    0.88907   1.00
C2       0.54937    0.41963    0.91178   1.00
C2       0.19127    0.10371    0.32447   1.00
C3       0.20351    0.06579    0.31166   1.00
H1       0.17467    0.01877    0.31178   1.00
C3       0.23291    0.17235    0.32373   1.00
H1       0.22466    0.19991    0.33235   1.00
C3a      0.25708    0.09339    0.29821   1.00
H1       0.26556    0.06689    0.28921   1.00
C3b      0.28720    0.20235    0.31043   1.00
H1       0.31490    0.24946    0.30977   1.00
C6       0.29915    0.16291    0.29718   1.00
C6       0.35661    0.19470    0.28264   1.00
C3c      0.34638    0.21083    0.26319   1.00
H1       0.30470    0.20666    0.25968   1.00
C3d      0.41992    0.20615    0.28906   1.00
H1       0.42840    0.19533    0.30193   1.00
C3       0.40045    0.23753    0.24967   1.00
H1       0.39407    0.24947    0.23666   1.00
C3       0.47303    0.23238    0.27400   1.00
H1       0.51580    0.23965    0.27759   1.00
C2       0.46307    0.24703    0.25488   1.00
C2       0.91245    0.80873    0.32447   1.00
C3       0.86229    0.79649    0.31166   1.00
H1       0.84411    0.82533    0.31178   1.00
C3       0.93945    0.76709    0.32373   1.00
H1       0.97526    0.77534    0.33235   1.00
C3a      0.83632    0.74292    0.29821   1.00
H1       0.80134    0.73444    0.28921   1.00
C3b      0.91516    0.71280    0.31043   1.00
H1       0.93457    0.68510    0.30977   1.00
C6       0.86377    0.70085    0.29718   1.00
C6       0.83810    0.64339    0.28264   1.00
C3c      0.86446    0.65362    0.26319   1.00
H1       0.90197    0.69530    0.25968   1.00
C3d      0.78624    0.58008    0.28906   1.00
H1       0.76694    0.57160    0.30193   1.00
C3       0.83709    0.59955    0.24967   1.00
H1       0.85541    0.60593    0.23666   1.00
C3       0.75936    0.52697    0.27400   1.00
H1       0.72386    0.48420    0.27759   1.00
C2       0.78397    0.53693    0.25488   1.00
C2       0.89629    0.08755    0.32447   1.00
C3       0.93421    0.13771    0.31166   1.00
H1       0.98123    0.15589    0.31178   1.00
C3       0.82765    0.06055    0.32373   1.00
H1       0.80009    0.02474    0.33235   1.00
C3a      0.90661    0.16368    0.29821   1.00
H1       0.93311    0.19866    0.28921   1.00
C3b      0.79765    0.08484    0.31043   1.00
H1       0.75054    0.06543    0.30977   1.00
C6       0.83709    0.13623    0.29718   1.00
C6       0.80530    0.16190    0.28264   1.00
C3c      0.78917    0.13554    0.26319   1.00
H1       0.79334    0.09803    0.25968   1.00
C3d      0.79385    0.21376    0.28906   1.00
H1       0.80467    0.23306    0.30193   1.00
C3       0.76247    0.16291    0.24967   1.00
H1       0.75053    0.14459    0.23666   1.00
C3       0.76762    0.24064    0.27400   1.00
H1       0.76035    0.27614    0.27759   1.00
C2       0.75297    0.21603    0.25488   1.00
C2       0.89629    0.80873    0.82447   1.00
C3       0.93421    0.79649    0.81166   1.00
H1       0.98123    0.82533    0.81178   1.00
C3       0.82765    0.76709    0.82373   1.00
H1       0.80009    0.77534    0.83235   1.00
C3a      0.90661    0.74292    0.79821   1.00
H1       0.93311    0.73444    0.78921   1.00
C3b      0.79765    0.71280    0.81043   1.00
H1       0.75054    0.68510    0.80977   1.00
C6       0.83709    0.70085    0.79718   1.00
C6       0.80530    0.64339    0.78264   1.00
C3c      0.78917    0.65362    0.76319   1.00
H1       0.79334    0.69530    0.75968   1.00
C3d      0.79385    0.58008    0.78906   1.00
H1       0.80467    0.57160    0.80193   1.00
C3       0.76247    0.59955    0.74967   1.00
H1       0.75053    0.60593    0.73666   1.00
C3       0.76762    0.52697    0.77400   1.00
H1       0.76035    0.48420    0.77759   1.00
C2       0.75297    0.53693    0.75488   1.00
C2       0.19127    0.08755    0.82447   1.00
C3       0.20351    0.13771    0.81166   1.00
H1       0.17467    0.15589    0.81178   1.00
C3       0.23291    0.06055    0.82373   1.00
H1       0.22466    0.02474    0.83235   1.00
C3a      0.25708    0.16368    0.79821   1.00
H1       0.26556    0.19866    0.78921   1.00
C3b      0.28720    0.08484    0.81043   1.00
H1       0.31490    0.06543    0.80977   1.00
C6       0.29915    0.13623    0.79718   1.00
C6       0.35661    0.16190    0.78264   1.00
C3c      0.34638    0.13554    0.76319   1.00
H1       0.30470    0.09803    0.75968   1.00
C3d      0.41992    0.21376    0.78906   1.00
H1       0.42840    0.23306    0.80193   1.00
C3       0.40045    0.16291    0.74967   1.00
H1       0.39407    0.14459    0.73666   1.00
C3       0.47303    0.24064    0.77400   1.00
H1       0.51580    0.27614    0.77759   1.00
C2       0.46307    0.21603    0.75488   1.00
C2       0.91245    0.10371    0.82447   1.00
C3       0.86229    0.06579    0.81166   1.00
H1       0.84411    0.01877    0.81178   1.00
C3       0.93945    0.17235    0.82373   1.00
H1       0.97526    0.19991    0.83235   1.00
C3a      0.83632    0.09339    0.79821   1.00
H1       0.80134    0.06689    0.78921   1.00
C3b      0.91516    0.20235    0.81043   1.00
H1       0.93457    0.24946    0.80977   1.00
C6       0.86377    0.16291    0.79718   1.00
C6       0.83810    0.19470    0.78264   1.00
C3c      0.86446    0.21083    0.76319   1.00
H1       0.90197    0.20666    0.75968   1.00
C3d      0.78624    0.20615    0.78906   1.00
H1       0.76694    0.19533    0.80193   1.00
C3       0.83709    0.23753    0.74967   1.00
H1       0.85541    0.24947    0.73666   1.00
C3       0.75936    0.23238    0.77400   1.00
H1       0.72386    0.23965    0.77759   1.00
C2       0.78397    0.24703    0.75488   1.00
C2       0.14207    0.56295    0.34219   1.00
C3       0.12983    0.60087    0.35500   1.00
H1       0.15867    0.64789    0.35488   1.00
C3       0.10043    0.49431    0.34293   1.00
H1       0.10868    0.46675    0.33431   1.00
C3a      0.07626    0.57327    0.36845   1.00
H1       0.06778    0.59977    0.37745   1.00
C3b      0.04614    0.46431    0.35623   1.00
H1       0.01844    0.41720    0.35689   1.00
C6       0.03419    0.50375    0.36948   1.00
C6       0.97673    0.47196    0.38402   1.00
C3c      0.98696    0.45583    0.40347   1.00
H1       1.02864    0.46000    0.40698   1.00
C3d      0.91342    0.46051    0.37760   1.00
H1       0.90494    0.47133    0.36473   1.00
C3       0.93289    0.42913    0.41699   1.00
H1       0.93927    0.41719    0.43000   1.00
C3       0.86031    0.43428    0.39266   1.00
H1       0.81754    0.42701    0.38907   1.00
C2       0.87027    0.41963    0.41178   1.00
C2       0.42089    0.85793    0.34219   1.00
C3       0.47105    0.87017    0.35500   1.00
H1       0.48923    0.84133    0.35488   1.00
C3       0.39389    0.89957    0.34293   1.00
H1       0.35808    0.89132    0.33431   1.00
C3a      0.49702    0.92374    0.36845   1.00
H1       0.53200    0.93222    0.37745   1.00
C3b      0.41818    0.95386    0.35623   1.00
H1       0.39877    0.98156    0.35689   1.00
C6       0.46957    0.96581    0.36948   1.00
C6       0.49524    0.02327    0.38402   1.00
C3c      0.46888    0.01304    0.40347   1.00
H1       0.43137    -0.02864   0.40698   1.00
C3d      0.54710    0.08658    0.37760   1.00
H1       0.56640    0.09506    0.36473   1.00
C3       0.49625    0.06711    0.41699   1.00
H1       0.47793    0.06073    0.43000   1.00
C3       0.57398    0.13969    0.39266   1.00
H1       0.60948    0.18246    0.38907   1.00
C2       0.54937    0.12973    0.41178   1.00
C2       0.43705    0.57911    0.34219   1.00
C3       0.39913    0.52895    0.35500   1.00
H1       0.35211    0.51077    0.35488   1.00
C3       0.50569    0.60611    0.34293   1.00
H1       0.53325    0.64192    0.33431   1.00
C3a      0.42673    0.50298    0.36845   1.00
H1       0.40023    0.46800    0.37745   1.00
C3b      0.53569    0.58182    0.35623   1.00
H1       0.58280    0.60123    0.35689   1.00
C6       0.49625    0.53043    0.36948   1.00
C6       0.52804    0.50476    0.38402   1.00
C3c      0.54417    0.53112    0.40347   1.00
H1       0.54000    0.56863    0.40698   1.00
C3d      0.53949    0.45290    0.37760   1.00
H1       0.52867    0.43360    0.36473   1.00
C3       0.57087    0.50375    0.41699   1.00
H1       0.58281    0.52207    0.43000   1.00
C3       0.56572    0.42602    0.39266   1.00
H1       0.57299    0.39052    0.38907   1.00
C2       0.58037    0.45063    0.41178   1.00
C2       0.10371    0.19127    0.17553   1.00
C3       0.06579    0.20351    0.18834   1.00
H1       0.01877    0.17467    0.18822   1.00
C3       0.17235    0.23291    0.17627   1.00
H1       0.19991    0.22466    0.16765   1.00
C3a      0.09339    0.25708    0.20179   1.00
H1       0.06689    0.26556    0.21079   1.00
C3b      0.20235    0.28720    0.18957   1.00
H1       0.24946    0.31490    0.19023   1.00
C6       0.16291    0.29915    0.20282   1.00
C6       0.19470    0.35661    0.21736   1.00
C3c      0.21083    0.34638    0.23681   1.00
H1       0.20666    0.30470    0.24032   1.00
C3d      0.20615    0.41992    0.21094   1.00
H1       0.19533    0.42840    0.19807   1.00
C3       0.23753    0.40045    0.25033   1.00
H1       0.24947    0.39407    0.26334   1.00
C3       0.23238    0.47303    0.22600   1.00
H1       0.23965    0.51580    0.22241   1.00
C2       0.24703    0.46307    0.24512   1.00
C2       0.80873    0.91245    0.17553   1.00
C3       0.79649    0.86229    0.18834   1.00
H1       0.82533    0.84411    0.18822   1.00
C3       0.76709    0.93945    0.17627   1.00
H1       0.77534    0.97526    0.16765   1.00
C3a      0.74292    0.83632    0.20179   1.00
H1       0.73444    0.80134    0.21079   1.00
C3b      0.71280    0.91516    0.18957   1.00
H1       0.68510    0.93457    0.19023   1.00
C6       0.70085    0.86377    0.20282   1.00
C6       0.64339    0.83810    0.21736   1.00
C3c      0.65362    0.86446    0.23681   1.00
H1       0.69530    0.90197    0.24032   1.00
C3d      0.58008    0.78624    0.21094   1.00
H1       0.57160    0.76694    0.19807   1.00
C3       0.59955    0.83709    0.25033   1.00
H1       0.60593    0.85541    0.26334   1.00
C3       0.52697    0.75936    0.22600   1.00
H1       0.48420    0.72386    0.22241   1.00
C2       0.53693    0.78397    0.24512   1.00
C2       0.08755    0.89629    0.17553   1.00
C3       0.13771    0.93421    0.18834   1.00
H1       0.15589    0.98123    0.18822   1.00
C3       0.06055    0.82765    0.17627   1.00
H1       0.02474    0.80009    0.16765   1.00
C3a      0.16368    0.90661    0.20179   1.00
H1       0.19866    0.93311    0.21079   1.00
C3b      0.08484    0.79765    0.18957   1.00
H1       0.06543    0.75054    0.19023   1.00
C6       0.13623    0.83709    0.20282   1.00
C6       0.16190    0.80530    0.21736   1.00
C3c      0.13554    0.78917    0.23681   1.00
H1       0.09803    0.79334    0.24032   1.00
C3d      0.21376    0.79385    0.21094   1.00
H1       0.23306    0.80467    0.19807   1.00
C3       0.16291    0.76247    0.25033   1.00
H1       0.14459    0.75053    0.26334   1.00
C3       0.24064    0.76762    0.22600   1.00
H1       0.27614    0.76035    0.22241   1.00
C2       0.21603    0.75297    0.24512   1.00
C2       0.85793    0.43705    0.65781   1.00
C3       0.87017    0.39913    0.64500   1.00
H1       0.84133    0.35211    0.64512   1.00
C3       0.89957    0.50569    0.65707   1.00
H1       0.89132    0.53325    0.66569   1.00
C3a      0.92374    0.42673    0.63155   1.00
H1       0.93222    0.40023    0.62255   1.00
C3b      0.95386    0.53569    0.64377   1.00
H1       0.98156    0.58280    0.64311   1.00
C6       0.96581    0.49625    0.63052   1.00
C6       0.02327    0.52804    0.61598   1.00
C3c      0.01304    0.54417    0.59653   1.00
H1       -0.02864   0.54000    0.59302   1.00
C3d      0.08658    0.53949    0.62240   1.00
H1       0.09506    0.52867    0.63527   1.00
C3       0.06711    0.57087    0.58301   1.00
H1       0.06073    0.58281    0.57000   1.00
C3       0.13969    0.56572    0.60734   1.00
H1       0.18246    0.57299    0.61093   1.00
C2       0.12973    0.58037    0.58822   1.00
C2       0.57911    0.14207    0.65781   1.00
C3       0.52895    0.12983    0.64500   1.00
H1       0.51077    0.15867    0.64512   1.00
C3       0.60611    0.10043    0.65707   1.00
H1       0.64192    0.10868    0.66569   1.00
C3a      0.50298    0.07626    0.63155   1.00
H1       0.46800    0.06778    0.62255   1.00
C3b      0.58182    0.04614    0.64377   1.00
H1       0.60123    0.01844    0.64311   1.00
C6       0.53043    0.03419    0.63052   1.00
C6       0.50476    0.97673    0.61598   1.00
C3c      0.53112    0.98696    0.59653   1.00
H1       0.56863    1.02864    0.59302   1.00
C3d      0.45290    0.91342    0.62240   1.00
H1       0.43360    0.90494    0.63527   1.00
C3       0.50375    0.93289    0.58301   1.00
H1       0.52207    0.93927    0.57000   1.00
C3       0.42602    0.86031    0.60734   1.00
H1       0.39052    0.81754    0.61093   1.00
C2       0.45063    0.87027    0.58822   1.00
C2       0.56295    0.42089    0.65781   1.00
C3       0.60087    0.47105    0.64500   1.00
H1       0.64789    0.48923    0.64512   1.00
C3       0.49431    0.39389    0.65707   1.00
H1       0.46675    0.35808    0.66569   1.00
C3a      0.57327    0.49702    0.63155   1.00
H1       0.59977    0.53200    0.62255   1.00
C3b      0.46431    0.41818    0.64377   1.00
H1       0.41720    0.39877    0.64311   1.00
C6       0.50375    0.46957    0.63052   1.00
C6       0.47196    0.49524    0.61598   1.00
C3c      0.45583    0.46888    0.59653   1.00
H1       0.46000    0.43137    0.59302   1.00
C3d      0.46051    0.54710    0.62240   1.00
H1       0.47133    0.56640    0.63527   1.00
C3       0.42913    0.49625    0.58301   1.00
H1       0.41719    0.47793    0.57000   1.00
C3       0.43428    0.57398    0.60734   1.00
H1       0.42701    0.60948    0.61093   1.00
C2       0.41963    0.54937    0.58822   1.00
C2       0.56295    0.14207    0.15781   1.00
C3       0.60087    0.12983    0.14500   1.00
H1       0.64789    0.15867    0.14512   1.00
C3       0.49431    0.10043    0.15707   1.00
H1       0.46675    0.10868    0.16569   1.00
C3a      0.57327    0.07626    0.13155   1.00
H1       0.59977    0.06778    0.12255   1.00
C3b      0.46431    0.04614    0.14377   1.00
H1       0.41720    0.01844    0.14311   1.00
C6       0.50375    0.03419    0.13052   1.00
C6       0.47196    0.97673    0.11598   1.00
C3c      0.45583    0.98696    0.09653   1.00
H1       0.46000    1.02864    0.09302   1.00
C3d      0.46051    0.91342    0.12240   1.00
H1       0.47133    0.90494    0.13527   1.00
C3       0.42913    0.93289    0.08301   1.00
H1       0.41719    0.93927    0.07000   1.00
C3       0.43428    0.86031    0.10734   1.00
H1       0.42701    0.81754    0.11093   1.00
C2       0.41963    0.87027    0.08822   1.00
C2       0.85793    0.42089    0.15781   1.00
C3       0.87017    0.47105    0.14500   1.00
H1       0.84133    0.48923    0.14512   1.00
C3       0.89957    0.39389    0.15707   1.00
H1       0.89132    0.35808    0.16569   1.00
C3a      0.92374    0.49702    0.13155   1.00
H1       0.93222    0.53200    0.12255   1.00
C3b      0.95386    0.41818    0.14377   1.00
H1       0.98156    0.39877    0.14311   1.00
C6       0.96581    0.46957    0.13052   1.00
C6       0.02327    0.49524    0.11598   1.00
C3c      0.01304    0.46888    0.09653   1.00
H1       -0.02864   0.43137    0.09302   1.00
C3d      0.08658    0.54710    0.12240   1.00
H1       0.09506    0.56640    0.13527   1.00
C3       0.06711    0.49625    0.08301   1.00
H1       0.06073    0.47793    0.07000   1.00
C3       0.13969    0.57398    0.10734   1.00
H1       0.18246    0.60948    0.11093   1.00
C2       0.12973    0.54937    0.08822   1.00
C2       0.57911    0.43705    0.15781   1.00
C3       0.52895    0.39913    0.14500   1.00
H1       0.51077    0.35211    0.14512   1.00
C3       0.60611    0.50569    0.15707   1.00
H1       0.64192    0.53325    0.16569   1.00
C3a      0.50298    0.42673    0.13155   1.00
H1       0.46800    0.40023    0.12255   1.00
C3b      0.58182    0.53569    0.14377   1.00
H1       0.60123    0.58280    0.14311   1.00
C6       0.53043    0.49625    0.13052   1.00
C6       0.50476    0.52804    0.11598   1.00
C3c      0.53112    0.54417    0.09653   1.00
H1       0.56863    0.54000    0.09302   1.00
C3d      0.45290    0.53949    0.12240   1.00
H1       0.43360    0.52867    0.13527   1.00
C3       0.50375    0.57087    0.08301   1.00
H1       0.52207    0.58281    0.07000   1.00
C3       0.42602    0.56572    0.10734   1.00
H1       0.39052    0.57299    0.11093   1.00
C2       0.45063    0.58037    0.08822   1.00
C2       0.80873    0.89629    0.67553   1.00
C3       0.79649    0.93421    0.68834   1.00
H1       0.82533    0.98123    0.68822   1.00
C3       0.76709    0.82765    0.67627   1.00
H1       0.77534    0.80009    0.66765   1.00
C3a      0.74292    0.90661    0.70179   1.00
H1       0.73444    0.93311    0.71079   1.00
C3b      0.71280    0.79765    0.68957   1.00
H1       0.68510    0.75054    0.69023   1.00
C6       0.70085    0.83709    0.70282   1.00
C6       0.64339    0.80530    0.71736   1.00
C3c      0.65362    0.78917    0.73681   1.00
H1       0.69530    0.79334    0.74032   1.00
C3d      0.58008    0.79385    0.71094   1.00
H1       0.57160    0.80467    0.69807   1.00
C3       0.59955    0.76247    0.75033   1.00
H1       0.60593    0.75053    0.76334   1.00
C3       0.52697    0.76762    0.72600   1.00
H1       0.48420    0.76035    0.72241   1.00
C2       0.53693    0.75297    0.74512   1.00
C2       0.08755    0.19127    0.67553   1.00
C3       0.13771    0.20351    0.68834   1.00
H1       0.15589    0.17467    0.68822   1.00
C3       0.06055    0.23291    0.67627   1.00
H1       0.02474    0.22466    0.66765   1.00
C3a      0.16368    0.25708    0.70179   1.00
H1       0.19866    0.26556    0.71079   1.00
C3b      0.08484    0.28720    0.68957   1.00
H1       0.06543    0.31490    0.69023   1.00
C6       0.13623    0.29915    0.70282   1.00
C6       0.16190    0.35661    0.71736   1.00
C3c      0.13554    0.34638    0.73681   1.00
H1       0.09803    0.30470    0.74032   1.00
C3d      0.21376    0.41992    0.71094   1.00
H1       0.23306    0.42840    0.69807   1.00
C3       0.16291    0.40045    0.75033   1.00
H1       0.14459    0.39407    0.76334   1.00
C3       0.24064    0.47303    0.72600   1.00
H1       0.27614    0.51580    0.72241   1.00
C2       0.21603    0.46307    0.74512   1.00
C2       0.10371    0.91245    0.67553   1.00
C3       0.06579    0.86229    0.68834   1.00
H1       0.01877    0.84411    0.68822   1.00
C3       0.17235    0.93945    0.67627   1.00
H1       0.19991    0.97526    0.66765   1.00
C3a      0.09339    0.83632    0.70179   1.00
H1       0.06689    0.80134    0.71079   1.00
C3b      0.20235    0.91516    0.68957   1.00
H1       0.24946    0.93457    0.69023   1.00
C6       0.16291    0.86377    0.70282   1.00
C6       0.19470    0.83810    0.71736   1.00
C3c      0.21083    0.86446    0.73681   1.00
H1       0.20666    0.90197    0.74032   1.00
C3d      0.20615    0.78624    0.71094   1.00
H1       0.19533    0.76694    0.69807   1.00
C3       0.23753    0.83709    0.75033   1.00
H1       0.24947    0.85541    0.76334   1.00
C3       0.23238    0.75936    0.72600   1.00
H1       0.23965    0.72386    0.72241   1.00
C2       0.24703    0.78397    0.74512   1.00
