data_IRMOF10_interpen_symm_ligand1lp_symm_b

_audit_creation_method             'generated by an auxiliary program of Tobunporous'

_symmetry_space_group_name_H-M     'P 1'
_symmetry_Int_Tables_number        1
_symmetry_cell_setting             triclinic

_cell_length_a                    22.6523
_cell_length_b                    22.6523
_cell_length_c                    65.9502
_cell_angle_alpha                 90.0000
_cell_angle_beta                  90.0000
_cell_angle_gamma                 120.0000

loop_
_atom_site_label
_atom_site_fract_x
_atom_site_fract_y
_atom_site_fract_z
_atom_site_occupancy
O1       0.00000    -0.00000   0.62500   1.00
Zn      0.00000    -0.00000   0.59589   1.00
Zn      0.94848    1.04288    0.63392   1.00
Zn      0.09439    0.05152    0.63392   1.00
Zn      -0.04288   0.90561    0.63392   1.00
O2       0.93860    0.02610    0.58587   1.00
O2       0.08750    0.06140    0.58587   1.00
O2       -0.02610   0.91250    0.58587   1.00
O2       0.91305    0.07161    0.61181   1.00
O2       0.00462    0.12022    0.65110   1.00
O2       0.87413    0.98074    0.65071   1.00
O2       0.15856    0.08695    0.61181   1.00
O2       0.10660    0.12587    0.65071   1.00
O2       0.11559    0.99538    0.65110   1.00
O2       -0.07161   0.84144    0.61181   1.00
O2       0.87978    0.88441    0.65110   1.00
O2       0.01926    0.89340    0.65071   1.00
C1       0.91390    0.06020    0.59358   1.00
C1       0.14630    0.08610    0.59358   1.00
C1       -0.06020   0.85370    0.59358   1.00
C1       0.06663    0.14397    0.65673   1.00
C1       0.85603    0.92267    0.65673   1.00
C1       0.07733    0.93337    0.65673   1.00
O1       -0.00000   0.00000    0.87500   1.00
Zn      -0.00000   0.00000    0.90411   1.00
Zn      1.04288    0.94848    0.86608   1.00
Zn      0.05152    0.09439    0.86608   1.00
Zn      0.90561    -0.04288   0.86608   1.00
O2       0.02610    0.93860    0.91413   1.00
O2       0.06140    0.08750    0.91413   1.00
O2       0.91250    -0.02610   0.91413   1.00
O2       0.07161    0.91305    0.88819   1.00
O2       0.12022    0.00462    0.84890   1.00
O2       0.98074    0.87413    0.84929   1.00
O2       0.08695    0.15856    0.88819   1.00
O2       0.12587    0.10660    0.84929   1.00
O2       0.99538    0.11559    0.84890   1.00
O2       0.84144    -0.07161   0.88819   1.00
O2       0.88441    0.87978    0.84890   1.00
O2       0.89340    0.01926    0.84929   1.00
C1       0.06020    0.91390    0.90642   1.00
C1       0.08610    0.14630    0.90642   1.00
C1       0.85370    -0.06020   0.90642   1.00
C1       0.14397    0.06663    0.84327   1.00
C1       0.92267    0.85603    0.84327   1.00
C1       0.93337    0.07733    0.84327   1.00
O1       0.00000    0.00000    0.37500   1.00
Zn      0.00000    0.00000    0.40411   1.00
Zn      0.05152    -0.04288   0.36608   1.00
Zn      0.90561    0.94848    0.36608   1.00
Zn      1.04288    0.09439    0.36608   1.00
O2       0.06140    -0.02610   0.41413   1.00
O2       0.91250    0.93860    0.41413   1.00
O2       0.02610    0.08750    0.41413   1.00
O2       0.08695    -0.07161   0.38819   1.00
O2       0.99538    0.87978    0.34890   1.00
O2       0.12587    0.01926    0.34929   1.00
O2       0.84144    0.91305    0.38819   1.00
O2       0.89340    0.87413    0.34929   1.00
O2       0.88441    0.00462    0.34890   1.00
O2       0.07161    0.15856    0.38819   1.00
O2       0.12022    0.11559    0.34890   1.00
O2       0.98074    0.10660    0.34929   1.00
C1       0.08610    -0.06020   0.40642   1.00
C1       0.85370    0.91390    0.40642   1.00
C1       0.06020    0.14630    0.40642   1.00
C1       0.93337    0.85603    0.34327   1.00
C1       0.14397    0.07733    0.34327   1.00
C1       0.92267    0.06663    0.34327   1.00
O1       0.00000    0.00000    0.12500   1.00
Zn      0.00000    0.00000    0.09589   1.00
Zn      -0.04288   0.05152    0.13392   1.00
Zn      0.94848    0.90561    0.13392   1.00
Zn      0.09439    1.04288    0.13392   1.00
O2       -0.02610   0.06140    0.08587   1.00
O2       0.93860    0.91250    0.08587   1.00
O2       0.08750    0.02610    0.08587   1.00
O2       -0.07161   0.08695    0.11181   1.00
O2       0.87978    0.99538    0.15110   1.00
O2       0.01926    0.12587    0.15071   1.00
O2       0.91305    0.84144    0.11181   1.00
O2       0.87413    0.89340    0.15071   1.00
O2       0.00462    0.88441    0.15110   1.00
O2       0.15856    0.07161    0.11181   1.00
O2       0.11559    0.12022    0.15110   1.00
O2       0.10660    0.98074    0.15071   1.00
C1       -0.06020   0.08610    0.09358   1.00
C1       0.91390    0.85370    0.09358   1.00
C1       0.14630    0.06020    0.09358   1.00
C1       0.85603    0.93337    0.15673   1.00
C1       0.07733    0.14397    0.15673   1.00
C1       0.06663    0.92267    0.15673   1.00
O1       0.66667    0.33333    0.95833   1.00
Zn      0.66667    0.33333    0.92922   1.00
Zn      0.61515    0.37621    0.96725   1.00
Zn      0.76106    0.38485    0.96725   1.00
Zn      -0.37621   0.23894    0.96725   1.00
O2       0.60527    0.35943    0.91920   1.00
O2       0.75417    0.39473    0.91920   1.00
O2       0.64057    0.24583    0.91920   1.00
O2       0.57972    0.40494    0.94514   1.00
O2       0.67129    0.45355    0.98443   1.00
O2       0.54080    0.31407    0.98404   1.00
O2       0.82523    0.42028    0.94514   1.00
O2       0.77327    0.45920    0.98404   1.00
O2       -0.21774   0.32871    0.98443   1.00
O2       0.59506    0.17477    0.94514   1.00
O2       0.54645    0.21774    0.98443   1.00
O2       -0.31407   0.22673    0.98404   1.00
C1       0.58057    0.39353    0.92691   1.00
C1       0.81297    0.41943    0.92691   1.00
C1       0.60647    0.18703    0.92691   1.00
C1       0.73330    0.47730    0.99006   1.00
C1       0.52270    0.25600    0.99006   1.00
C1       -0.25600   0.26670    0.99006   1.00
O1       0.66667    0.33333    0.20833   1.00
Zn      0.66667    0.33333    0.23744   1.00
Zn      0.70954    0.28182    0.19942   1.00
Zn      0.71818    0.42773    0.19942   1.00
Zn      0.57227    0.29046    0.19942   1.00
O2       0.69277    0.27193    0.24746   1.00
O2       0.72807    0.42083    0.24746   1.00
O2       0.57917    0.30723    0.24746   1.00
O2       0.73828    0.24638    0.22152   1.00
O2       0.78688    0.33796    0.18224   1.00
O2       0.64740    0.20747    0.18263   1.00
O2       0.75362    0.49189    0.22152   1.00
O2       0.79253    0.43994    0.18263   1.00
O2       0.66204    0.44893    0.18224   1.00
O2       0.50811    0.26172    0.22152   1.00
O2       0.55107    0.21312    0.18224   1.00
O2       0.56006    0.35260    0.18263   1.00
C1       0.72687    0.24723    0.23975   1.00
C1       0.75277    0.47963    0.23975   1.00
C1       0.52037    0.27313    0.23975   1.00
C1       0.81063    0.39997    0.17661   1.00
C1       0.58933    0.18937    0.17661   1.00
C1       0.60003    0.41067    0.17661   1.00
O1       0.66667    0.33333    0.70833   1.00
Zn      0.66667    0.33333    0.73744   1.00
Zn      0.71818    0.29046    0.69942   1.00
Zn      0.57227    0.28182    0.69942   1.00
Zn      0.70954    0.42773    0.69942   1.00
O2       0.72807    0.30723    0.74746   1.00
O2       0.57917    0.27193    0.74746   1.00
O2       0.69277    0.42083    0.74746   1.00
O2       0.75362    0.26172    0.72152   1.00
O2       0.66204    0.21312    0.68224   1.00
O2       0.79253    0.35260    0.68263   1.00
O2       0.50811    0.24638    0.72152   1.00
O2       0.56006    0.20747    0.68263   1.00
O2       0.55107    0.33796    0.68224   1.00
O2       0.73828    0.49189    0.72152   1.00
O2       0.78688    0.44893    0.68224   1.00
O2       0.64740    0.43994    0.68263   1.00
C1       0.75277    0.27313    0.73975   1.00
C1       0.52037    0.24723    0.73975   1.00
C1       0.72687    0.47963    0.73975   1.00
C1       0.60003    0.18937    0.67661   1.00
C1       0.81063    0.41067    0.67661   1.00
C1       0.58933    0.39997    0.67661   1.00
O1       0.66667    0.33333    0.45833   1.00
Zn      0.66667    0.33333    0.42922   1.00
Zn      -0.37621   0.38485    0.46725   1.00
Zn      0.61515    0.23894    0.46725   1.00
Zn      0.76106    0.37621    0.46725   1.00
O2       0.64057    0.39473    0.41920   1.00
O2       0.60527    0.24583    0.41920   1.00
O2       0.75417    0.35943    0.41920   1.00
O2       0.59506    0.42028    0.44514   1.00
O2       0.54645    0.32871    0.48443   1.00
O2       -0.31407   0.45920    0.48404   1.00
O2       0.57972    0.17477    0.44514   1.00
O2       0.54080    0.22673    0.48404   1.00
O2       0.67129    0.21774    0.48443   1.00
O2       0.82523    0.40494    0.44514   1.00
O2       -0.21774   0.45355    0.48443   1.00
O2       0.77327    0.31407    0.48404   1.00
C1       0.60647    0.41943    0.42691   1.00
C1       0.58057    0.18703    0.42691   1.00
C1       0.81297    0.39353    0.42691   1.00
C1       0.52270    0.26670    0.49006   1.00
C1       -0.25600   0.47730    0.49006   1.00
C1       0.73330    0.25600    0.49006   1.00
O1       0.33333    0.66667    0.29167   1.00
Zn      0.33333    0.66667    0.26256   1.00
Zn      0.28182    0.70954    0.30058   1.00
Zn      0.42773    0.71818    0.30058   1.00
Zn      0.29046    0.57227    0.30058   1.00
O2       0.27193    0.69277    0.25254   1.00
O2       0.42083    0.72807    0.25254   1.00
O2       0.30723    0.57917    0.25254   1.00
O2       0.24638    0.73828    0.27848   1.00
O2       0.33796    0.78688    0.31776   1.00
O2       0.20747    0.64740    0.31737   1.00
O2       0.49189    0.75362    0.27848   1.00
O2       0.43994    0.79253    0.31737   1.00
O2       0.44893    0.66204    0.31776   1.00
O2       0.26172    0.50811    0.27848   1.00
O2       0.21312    0.55107    0.31776   1.00
O2       0.35260    0.56006    0.31737   1.00
C1       0.24723    0.72687    0.26025   1.00
C1       0.47963    0.75277    0.26025   1.00
C1       0.27313    0.52037    0.26025   1.00
C1       0.39997    0.81063    0.32339   1.00
C1       0.18937    0.58933    0.32339   1.00
C1       0.41067    0.60003    0.32339   1.00
O1       0.33333    0.66667    0.54167   1.00
Zn      0.33333    0.66667    0.57078   1.00
Zn      0.37621    0.61515    0.53275   1.00
Zn      0.38485    0.76106    0.53275   1.00
Zn      0.23894    -0.37621   0.53275   1.00
O2       0.35943    0.60527    0.58080   1.00
O2       0.39473    0.75417    0.58080   1.00
O2       0.24583    0.64057    0.58080   1.00
O2       0.40494    0.57972    0.55486   1.00
O2       0.45355    0.67129    0.51557   1.00
O2       0.31407    0.54080    0.51596   1.00
O2       0.42028    0.82523    0.55486   1.00
O2       0.45920    0.77327    0.51596   1.00
O2       0.32871    -0.21774   0.51557   1.00
O2       0.17477    0.59506    0.55486   1.00
O2       0.21774    0.54645    0.51557   1.00
O2       0.22673    -0.31407   0.51596   1.00
C1       0.39353    0.58057    0.57309   1.00
C1       0.41943    0.81297    0.57309   1.00
C1       0.18703    0.60647    0.57309   1.00
C1       0.47730    0.73330    0.50994   1.00
C1       0.25600    0.52270    0.50994   1.00
C1       0.26670    -0.25600   0.50994   1.00
O1       0.33333    0.66667    0.04167   1.00
Zn      0.33333    0.66667    0.07078   1.00
Zn      0.38485    -0.37621   0.03275   1.00
Zn      0.23894    0.61515    0.03275   1.00
Zn      0.37621    0.76106    0.03275   1.00
O2       0.39473    0.64057    0.08080   1.00
O2       0.24583    0.60527    0.08080   1.00
O2       0.35943    0.75417    0.08080   1.00
O2       0.42028    0.59506    0.05486   1.00
O2       0.32871    0.54645    0.01557   1.00
O2       0.45920    -0.31407   0.01596   1.00
O2       0.17477    0.57972    0.05486   1.00
O2       0.22673    0.54080    0.01596   1.00
O2       0.21774    0.67129    0.01557   1.00
O2       0.40494    0.82523    0.05486   1.00
O2       0.45355    -0.21774   0.01557   1.00
O2       0.31407    0.77327    0.01596   1.00
C1       0.41943    0.60647    0.07309   1.00
C1       0.18703    0.58057    0.07309   1.00
C1       0.39353    0.81297    0.07309   1.00
C1       0.26670    0.52270    0.00994   1.00
C1       0.47730    -0.25600   0.00994   1.00
C1       0.25600    0.73330    0.00994   1.00
O1       0.33333    0.66667    0.79167   1.00
Zn      0.33333    0.66667    0.76256   1.00
Zn      0.29046    0.71818    0.80058   1.00
Zn      0.28182    0.57227    0.80058   1.00
Zn      0.42773    0.70954    0.80058   1.00
O2       0.30723    0.72807    0.75254   1.00
O2       0.27193    0.57917    0.75254   1.00
O2       0.42083    0.69277    0.75254   1.00
O2       0.26172    0.75362    0.77848   1.00
O2       0.21312    0.66204    0.81776   1.00
O2       0.35260    0.79253    0.81737   1.00
O2       0.24638    0.50811    0.77848   1.00
O2       0.20747    0.56006    0.81737   1.00
O2       0.33796    0.55107    0.81776   1.00
O2       0.49189    0.73828    0.77848   1.00
O2       0.44893    0.78688    0.81776   1.00
O2       0.43994    0.64740    0.81737   1.00
C1       0.27313    0.75277    0.76025   1.00
C1       0.24723    0.52037    0.76025   1.00
C1       0.47963    0.72687    0.76025   1.00
C1       0.18937    0.60003    0.82339   1.00
C1       0.41067    0.81063    0.82339   1.00
C1       0.39997    0.58933    0.82339   1.00
C2       -0.22517   0.51548    0.51210   1.00
C3       -0.24464   0.51013    0.53134   1.00
H1       -0.27722   0.46761    0.53622   1.00
C3       -0.17637   0.57760    0.50538   1.00
H1       -0.16126   0.58228    0.49205   1.00
C4       -0.21837   0.56501    0.54432   1.00
C5       -0.24041   0.55886    0.56636   1.00
H2       -0.21337   0.54615    0.57452   1.00
H2       -0.28759   0.52470    0.56755   1.00
H2       -0.23411   0.60180    0.57096   1.00
C4       -0.14837   0.63409    0.51788   1.00
C5       -0.09126   0.70461    0.51020   1.00
H2       -0.11115   0.73091    0.50557   1.00
H2       -0.06709   0.69820    0.49927   1.00
H2       -0.06029   0.72828    0.52107   1.00
C6       -0.16839   0.62802    0.53773   1.00
C6       -0.13790   0.68810    0.55134   1.00
C4       -0.08231   0.70176    0.56333   1.00
C5       -0.04778   0.66130    0.56079   1.00
H2       -0.06734   0.62331    0.56995   1.00
H2       -0.00023   0.68936    0.56369   1.00
H2       -0.05352   0.64505    0.54705   1.00
C4       -0.16777   0.72876    0.55192   1.00
C5       -0.22989   0.71545    0.53925   1.00
H2       -0.21497   0.73742    0.52627   1.00
H2       -0.25481   0.73335    0.54617   1.00
H2       -0.25858   0.66735    0.53729   1.00
C3       -0.05702   0.75650    0.57660   1.00
H1       -0.01894   0.76653    0.58446   1.00
C3       -0.13974   0.78355    0.56643   1.00
H1       -0.15903   0.81121    0.56753   1.00
C2       -0.08630   0.79640    0.57845   1.00
C2       0.48452    0.25935    0.51210   1.00
C3       0.48987    0.24523    0.53134   1.00
H1       0.53239    0.25517    0.53622   1.00
C3       0.42240    0.24603    0.50538   1.00
H1       0.41772    0.25646    0.49205   1.00
C4       0.43499    0.21662    0.54432   1.00
C5       0.44114    0.20073    0.56636   1.00
H2       0.45385    0.24048    0.57452   1.00
H2       0.47530    0.18771    0.56755   1.00
H2       0.39820    0.16409    0.57096   1.00
C4       0.36591    0.21754    0.51788   1.00
C5       0.29539    0.20413    0.51020   1.00
H2       0.26909    0.15794    0.50557   1.00
H2       0.30180    0.23471    0.49927   1.00
H2       0.27172    0.21143    0.52107   1.00
C6       0.37198    0.20359    0.53773   1.00
C6       0.31190    0.17400    0.55134   1.00
C4       0.29824    0.21593    0.56333   1.00
C5       0.33870    0.29092    0.56079   1.00
H2       0.37669    0.30935    0.56995   1.00
H2       0.31064    0.31041    0.56369   1.00
H2       0.35495    0.30143    0.54705   1.00
C4       0.27124    0.10347    0.55192   1.00
C5       0.28455    0.05466    0.53925   1.00
H2       0.26258    0.04761    0.52627   1.00
H2       0.26665    0.01184    0.54617   1.00
H2       0.33265    0.07407    0.53729   1.00
C3       0.24350    0.18648    0.57660   1.00
H1       0.23347    0.21453    0.58446   1.00
C3       0.21645    0.07671    0.56643   1.00
H1       0.18879    0.02976    0.56753   1.00
C2       0.20360    0.11730    0.57845   1.00
C2       0.74065    0.22517    0.51210   1.00
C3       0.75477    0.24464    0.53134   1.00
H1       0.74483    0.27722    0.53622   1.00
C3       0.75397    0.17637    0.50538   1.00
H1       0.74354    0.16126    0.49205   1.00
C4       0.78338    0.21837    0.54432   1.00
C5       0.79927    0.24041    0.56636   1.00
H2       0.75952    0.21337    0.57452   1.00
H2       0.81229    0.28759    0.56755   1.00
H2       0.83591    0.23411    0.57096   1.00
C4       0.78246    0.14837    0.51788   1.00
C5       0.79587    0.09126    0.51020   1.00
H2       0.84206    0.11115    0.50557   1.00
H2       0.76529    0.06709    0.49927   1.00
H2       0.78857    0.06029    0.52107   1.00
C6       0.79641    0.16839    0.53773   1.00
C6       0.82600    0.13790    0.55134   1.00
C4       0.78407    0.08231    0.56333   1.00
C5       0.70908    0.04778    0.56079   1.00
H2       0.69065    0.06734    0.56995   1.00
H2       0.68959    0.00023    0.56369   1.00
H2       0.69857    0.05352    0.54705   1.00
C4       0.89653    0.16777    0.55192   1.00
C5       0.94534    0.22989    0.53925   1.00
H2       0.95239    0.21497    0.52627   1.00
H2       0.98816    0.25481    0.54617   1.00
H2       0.92593    0.25858    0.53729   1.00
C3       0.81352    0.05702    0.57660   1.00
H1       0.78547    0.01894    0.58446   1.00
C3       0.92329    0.13974    0.56643   1.00
H1       0.97024    0.15903    0.56753   1.00
C2       0.88270    0.08630    0.57845   1.00
C2       0.51548    -0.22517   0.98790   1.00
C3       0.51013    -0.24464   0.96866   1.00
H1       0.46761    -0.27722   0.96378   1.00
C3       0.57760    -0.17637   0.99462   1.00
H1       0.58228    -0.16126   0.00795   1.00
C4       0.56501    -0.21837   0.95568   1.00
C5       0.55886    -0.24041   0.93364   1.00
H2       0.54615    -0.21337   0.92548   1.00
H2       0.52470    -0.28759   0.93245   1.00
H2       0.60180    -0.23411   0.92904   1.00
C4       0.63409    -0.14837   0.98212   1.00
C5       0.70461    -0.09126   0.98980   1.00
H2       0.73091    -0.11115   0.99443   1.00
H2       0.69820    -0.06709   0.00073   1.00
H2       0.72828    -0.06029   0.97893   1.00
C6       0.62802    -0.16839   0.96227   1.00
C6       0.68810    -0.13790   0.94866   1.00
C4       0.70176    -0.08231   0.93667   1.00
C5       0.66130    -0.04778   0.93921   1.00
H2       0.62331    -0.06734   0.93005   1.00
H2       0.68936    -0.00023   0.93631   1.00
H2       0.64505    -0.05352   0.95295   1.00
C4       0.72876    -0.16777   0.94808   1.00
C5       0.71545    -0.22989   0.96075   1.00
H2       0.73742    -0.21497   0.97373   1.00
H2       0.73335    -0.25481   0.95383   1.00
H2       0.66735    -0.25858   0.96271   1.00
C3       0.75650    -0.05702   0.92340   1.00
H1       0.76653    -0.01894   0.91554   1.00
C3       0.78355    -0.13974   0.93357   1.00
H1       0.81121    -0.15903   0.93247   1.00
C2       0.79640    -0.08630   0.92155   1.00
C2       0.25935    0.48452    0.98790   1.00
C3       0.24523    0.48987    0.96866   1.00
H1       0.25517    0.53239    0.96378   1.00
C3       0.24603    0.42240    0.99462   1.00
H1       0.25646    0.41772    0.00795   1.00
C4       0.21662    0.43499    0.95568   1.00
C5       0.20073    0.44114    0.93364   1.00
H2       0.24048    0.45385    0.92548   1.00
H2       0.18771    0.47530    0.93245   1.00
H2       0.16409    0.39820    0.92904   1.00
C4       0.21754    0.36591    0.98212   1.00
C5       0.20413    0.29539    0.98980   1.00
H2       0.15794    0.26909    0.99443   1.00
H2       0.23471    0.30180    0.00073   1.00
H2       0.21143    0.27172    0.97893   1.00
C6       0.20359    0.37198    0.96227   1.00
C6       0.17400    0.31190    0.94866   1.00
C4       0.21593    0.29824    0.93667   1.00
C5       0.29092    0.33870    0.93921   1.00
H2       0.30935    0.37669    0.93005   1.00
H2       0.31041    0.31064    0.93631   1.00
H2       0.30143    0.35495    0.95295   1.00
C4       0.10347    0.27124    0.94808   1.00
C5       0.05466    0.28455    0.96075   1.00
H2       0.04761    0.26258    0.97373   1.00
H2       0.01184    0.26665    0.95383   1.00
H2       0.07407    0.33265    0.96271   1.00
C3       0.18648    0.24350    0.92340   1.00
H1       0.21453    0.23347    0.91554   1.00
C3       0.07671    0.21645    0.93357   1.00
H1       0.02976    0.18879    0.93247   1.00
C2       0.11730    0.20360    0.92155   1.00
C2       0.22517    0.74065    0.98790   1.00
C3       0.24464    0.75477    0.96866   1.00
H1       0.27722    0.74483    0.96378   1.00
C3       0.17637    0.75397    0.99462   1.00
H1       0.16126    0.74354    0.00795   1.00
C4       0.21837    0.78338    0.95568   1.00
C5       0.24041    0.79927    0.93364   1.00
H2       0.21337    0.75952    0.92548   1.00
H2       0.28759    0.81229    0.93245   1.00
H2       0.23411    0.83591    0.92904   1.00
C4       0.14837    0.78246    0.98212   1.00
C5       0.09126    0.79587    0.98980   1.00
H2       0.11115    0.84206    0.99443   1.00
H2       0.06709    0.76529    0.00073   1.00
H2       0.06029    0.78857    0.97893   1.00
C6       0.16839    0.79641    0.96227   1.00
C6       0.13790    0.82600    0.94866   1.00
C4       0.08231    0.78407    0.93667   1.00
C5       0.04778    0.70908    0.93921   1.00
H2       0.06734    0.69065    0.93005   1.00
H2       0.00023    0.68959    0.93631   1.00
H2       0.05352    0.69857    0.95295   1.00
C4       0.16777    0.89653    0.94808   1.00
C5       0.22989    0.94534    0.96075   1.00
H2       0.21497    0.95239    0.97373   1.00
H2       0.25481    0.98816    0.95383   1.00
H2       0.25858    0.92593    0.96271   1.00
C3       0.05702    0.81352    0.92340   1.00
H1       0.01894    0.78547    0.91554   1.00
C3       0.13974    0.92329    0.93357   1.00
H1       0.15903    0.97024    0.93247   1.00
C2       0.08630    0.88270    0.92155   1.00
C2       0.22517    0.48452    0.48790   1.00
C3       0.24464    0.48987    0.46866   1.00
H1       0.27722    0.53239    0.46378   1.00
C3       0.17637    0.42240    0.49462   1.00
H1       0.16126    0.41772    0.50795   1.00
C4       0.21837    0.43499    0.45568   1.00
C5       0.24041    0.44114    0.43364   1.00
H2       0.21337    0.45385    0.42548   1.00
H2       0.28759    0.47530    0.43245   1.00
H2       0.23411    0.39820    0.42904   1.00
C4       0.14837    0.36591    0.48212   1.00
C5       0.09126    0.29539    0.48980   1.00
H2       0.11115    0.26909    0.49443   1.00
H2       0.06709    0.30180    0.50073   1.00
H2       0.06029    0.27172    0.47893   1.00
C6       0.16839    0.37198    0.46227   1.00
C6       0.13790    0.31190    0.44866   1.00
C4       0.08231    0.29824    0.43667   1.00
C5       0.04778    0.33870    0.43921   1.00
H2       0.06734    0.37669    0.43005   1.00
H2       0.00023    0.31064    0.43631   1.00
H2       0.05352    0.35495    0.45295   1.00
C4       0.16777    0.27124    0.44808   1.00
C5       0.22989    0.28455    0.46075   1.00
H2       0.21497    0.26258    0.47373   1.00
H2       0.25481    0.26665    0.45383   1.00
H2       0.25858    0.33265    0.46271   1.00
C3       0.05702    0.24350    0.42340   1.00
H1       0.01894    0.23347    0.41554   1.00
C3       0.13974    0.21645    0.43357   1.00
H1       0.15903    0.18879    0.43247   1.00
C2       0.08630    0.20360    0.42155   1.00
C2       0.51548    0.74065    0.48790   1.00
C3       0.51013    0.75477    0.46866   1.00
H1       0.46761    0.74483    0.46378   1.00
C3       0.57760    0.75397    0.49462   1.00
H1       0.58228    0.74354    0.50795   1.00
C4       0.56501    0.78338    0.45568   1.00
C5       0.55886    0.79927    0.43364   1.00
H2       0.54615    0.75952    0.42548   1.00
H2       0.52470    0.81229    0.43245   1.00
H2       0.60180    0.83591    0.42904   1.00
C4       0.63409    0.78246    0.48212   1.00
C5       0.70461    0.79587    0.48980   1.00
H2       0.73091    0.84206    0.49443   1.00
H2       0.69820    0.76529    0.50073   1.00
H2       0.72828    0.78857    0.47893   1.00
C6       0.62802    0.79641    0.46227   1.00
C6       0.68810    0.82600    0.44866   1.00
C4       0.70176    0.78407    0.43667   1.00
C5       0.66130    0.70908    0.43921   1.00
H2       0.62331    0.69065    0.43005   1.00
H2       0.68936    0.68959    0.43631   1.00
H2       0.64505    0.69857    0.45295   1.00
C4       0.72876    0.89653    0.44808   1.00
C5       0.71545    0.94534    0.46075   1.00
H2       0.73742    0.95239    0.47373   1.00
H2       0.73335    0.98816    0.45383   1.00
H2       0.66735    0.92593    0.46271   1.00
C3       0.75650    0.81352    0.42340   1.00
H1       0.76653    0.78547    0.41554   1.00
C3       0.78355    0.92329    0.43357   1.00
H1       0.81121    0.97024    0.43247   1.00
C2       0.79640    0.88270    0.42155   1.00
C2       0.25935    -0.22517   0.48790   1.00
C3       0.24523    -0.24464   0.46866   1.00
H1       0.25517    -0.27722   0.46378   1.00
C3       0.24603    -0.17637   0.49462   1.00
H1       0.25646    -0.16126   0.50795   1.00
C4       0.21662    -0.21837   0.45568   1.00
C5       0.20073    -0.24041   0.43364   1.00
H2       0.24048    -0.21337   0.42548   1.00
H2       0.18771    -0.28759   0.43245   1.00
H2       0.16409    -0.23411   0.42904   1.00
C4       0.21754    -0.14837   0.48212   1.00
C5       0.20413    -0.09126   0.48980   1.00
H2       0.15794    -0.11115   0.49443   1.00
H2       0.23471    -0.06709   0.50073   1.00
H2       0.21143    -0.06029   0.47893   1.00
C6       0.20359    -0.16839   0.46227   1.00
C6       0.17400    -0.13790   0.44866   1.00
C4       0.21593    -0.08231   0.43667   1.00
C5       0.29092    -0.04778   0.43921   1.00
H2       0.30935    -0.06734   0.43005   1.00
H2       0.31041    -0.00023   0.43631   1.00
H2       0.30143    -0.05352   0.45295   1.00
C4       0.10347    -0.16777   0.44808   1.00
C5       0.05466    -0.22989   0.46075   1.00
H2       0.04761    -0.21497   0.47373   1.00
H2       0.01184    -0.25481   0.45383   1.00
H2       0.07407    -0.25858   0.46271   1.00
C3       0.18648    -0.05702   0.42340   1.00
H1       0.21453    -0.01894   0.41554   1.00
C3       0.07671    -0.13974   0.43357   1.00
H1       0.02976    -0.15903   0.43247   1.00
C2       0.11730    -0.08630   0.42155   1.00
C2       0.48452    0.22517    0.01210   1.00
C3       0.48987    0.24464    0.03134   1.00
H1       0.53239    0.27722    0.03622   1.00
C3       0.42240    0.17637    0.00538   1.00
H1       0.41772    0.16126    0.99205   1.00
C4       0.43499    0.21837    0.04432   1.00
C5       0.44114    0.24041    0.06636   1.00
H2       0.45385    0.21337    0.07452   1.00
H2       0.47530    0.28759    0.06755   1.00
H2       0.39820    0.23411    0.07096   1.00
C4       0.36591    0.14837    0.01788   1.00
C5       0.29539    0.09126    0.01020   1.00
H2       0.26909    0.11115    0.00557   1.00
H2       0.30180    0.06709    0.99927   1.00
H2       0.27172    0.06029    0.02107   1.00
C6       0.37198    0.16839    0.03773   1.00
C6       0.31190    0.13790    0.05134   1.00
C4       0.29824    0.08231    0.06333   1.00
C5       0.33870    0.04778    0.06079   1.00
H2       0.37669    0.06734    0.06995   1.00
H2       0.31064    0.00023    0.06369   1.00
H2       0.35495    0.05352    0.04705   1.00
C4       0.27124    0.16777    0.05192   1.00
C5       0.28455    0.22989    0.03925   1.00
H2       0.26258    0.21497    0.02627   1.00
H2       0.26665    0.25481    0.04617   1.00
H2       0.33265    0.25858    0.03729   1.00
C3       0.24350    0.05702    0.07660   1.00
H1       0.23347    0.01894    0.08446   1.00
C3       0.21645    0.13974    0.06643   1.00
H1       0.18879    0.15903    0.06753   1.00
C2       0.20360    0.08630    0.07845   1.00
C2       0.74065    0.51548    0.01210   1.00
C3       0.75477    0.51013    0.03134   1.00
H1       0.74483    0.46761    0.03622   1.00
C3       0.75397    0.57760    0.00538   1.00
H1       0.74354    0.58228    0.99205   1.00
C4       0.78338    0.56501    0.04432   1.00
C5       0.79927    0.55886    0.06636   1.00
H2       0.75952    0.54615    0.07452   1.00
H2       0.81229    0.52470    0.06755   1.00
H2       0.83591    0.60180    0.07096   1.00
C4       0.78246    0.63409    0.01788   1.00
C5       0.79587    0.70461    0.01020   1.00
H2       0.84206    0.73091    0.00557   1.00
H2       0.76529    0.69820    0.99927   1.00
H2       0.78857    0.72828    0.02107   1.00
C6       0.79641    0.62802    0.03773   1.00
C6       0.82600    0.68810    0.05134   1.00
C4       0.78407    0.70176    0.06333   1.00
C5       0.70908    0.66130    0.06079   1.00
H2       0.69065    0.62331    0.06995   1.00
H2       0.68959    0.68936    0.06369   1.00
H2       0.69857    0.64505    0.04705   1.00
C4       0.89653    0.72876    0.05192   1.00
C5       0.94534    0.71545    0.03925   1.00
H2       0.95239    0.73742    0.02627   1.00
H2       0.98816    0.73335    0.04617   1.00
H2       0.92593    0.66735    0.03729   1.00
C3       0.81352    0.75650    0.07660   1.00
H1       0.78547    0.76653    0.08446   1.00
C3       0.92329    0.78355    0.06643   1.00
H1       0.97024    0.81121    0.06753   1.00
C2       0.88270    0.79640    0.07845   1.00
C2       -0.22517   0.25935    0.01210   1.00
C3       -0.24464   0.24523    0.03134   1.00
H1       -0.27722   0.25517    0.03622   1.00
C3       -0.17637   0.24603    0.00538   1.00
H1       -0.16126   0.25646    0.99205   1.00
C4       -0.21837   0.21662    0.04432   1.00
C5       -0.24041   0.20073    0.06636   1.00
H2       -0.21337   0.24048    0.07452   1.00
H2       -0.28759   0.18771    0.06755   1.00
H2       -0.23411   0.16409    0.07096   1.00
C4       -0.14837   0.21754    0.01788   1.00
C5       -0.09126   0.20413    0.01020   1.00
H2       -0.11115   0.15794    0.00557   1.00
H2       -0.06709   0.23471    0.99927   1.00
H2       -0.06029   0.21143    0.02107   1.00
C6       -0.16839   0.20359    0.03773   1.00
C6       -0.13790   0.17400    0.05134   1.00
C4       -0.08231   0.21593    0.06333   1.00
C5       -0.04778   0.29092    0.06079   1.00
H2       -0.06734   0.30935    0.06995   1.00
H2       -0.00023   0.31041    0.06369   1.00
H2       -0.05352   0.30143    0.04705   1.00
C4       -0.16777   0.10347    0.05192   1.00
C5       -0.22989   0.05466    0.03925   1.00
H2       -0.21497   0.04761    0.02627   1.00
H2       -0.25481   0.01184    0.04617   1.00
H2       -0.25858   0.07407    0.03729   1.00
C3       -0.05702   0.18648    0.07660   1.00
H1       -0.01894   0.21453    0.08446   1.00
C3       -0.13974   0.07671    0.06643   1.00
H1       -0.15903   0.02976    0.06753   1.00
C2       -0.08630   0.11730    0.07845   1.00
C2       0.44150    0.84881    0.84543   1.00
C3       0.42203    0.84346    0.86467   1.00
H1       0.38945    0.80094    0.86955   1.00
C3       0.49030    0.91093    0.83871   1.00
H1       0.50541    0.91561    0.82538   1.00
C4       0.44830    0.89834    0.87765   1.00
C5       0.42626    0.89219    0.89969   1.00
H2       0.45330    0.87948    0.90785   1.00
H2       0.37908    0.85803    0.90088   1.00
H2       0.43256    0.93513    0.90429   1.00
C4       0.51830    0.96742    0.85121   1.00
C5       0.57541    0.03794    0.84353   1.00
H2       0.55552    0.06424    0.83890   1.00
H2       0.59958    0.03153    0.83260   1.00
H2       0.60638    0.06161    0.85440   1.00
C6       0.49828    0.96135    0.87106   1.00
C6       0.52877    0.02143    0.88467   1.00
C4       0.58436    0.03509    0.89666   1.00
C5       0.61889    0.99463    0.89412   1.00
H2       0.59933    0.95664    0.90328   1.00
H2       0.66644    0.02269    0.89702   1.00
H2       0.61315    0.97838    0.88038   1.00
C4       0.49890    0.06209    0.88525   1.00
C5       0.43678    0.04878    0.87258   1.00
H2       0.45170    0.07075    0.85960   1.00
H2       0.41186    0.06668    0.87950   1.00
H2       0.40809    0.00068    0.87062   1.00
C3       0.60965    0.08983    0.90993   1.00
H1       0.64773    0.09986    0.91779   1.00
C3       0.52693    0.11688    0.89976   1.00
H1       0.50764    0.14454    0.90086   1.00
C2       0.58037    0.12973    0.91178   1.00
C2       0.15119    0.59268    0.84543   1.00
C3       0.15654    0.57856    0.86467   1.00
H1       0.19906    0.58850    0.86955   1.00
C3       0.08907    0.57936    0.83871   1.00
H1       0.08439    0.58979    0.82538   1.00
C4       0.10166    0.54995    0.87765   1.00
C5       0.10781    0.53406    0.89969   1.00
H2       0.12052    0.57381    0.90785   1.00
H2       0.14197    0.52104    0.90088   1.00
H2       0.06487    0.49742    0.90429   1.00
C4       0.03258    0.55087    0.85121   1.00
C5       0.96206    0.53746    0.84353   1.00
H2       0.93576    0.49127    0.83890   1.00
H2       0.96847    0.56804    0.83260   1.00
H2       0.93839    0.54476    0.85440   1.00
C6       0.03865    0.53692    0.87106   1.00
C6       0.97857    0.50733    0.88467   1.00
C4       0.96491    0.54926    0.89666   1.00
C5       0.00537    0.62425    0.89412   1.00
H2       0.04336    0.64268    0.90328   1.00
H2       0.97731    0.64374    0.89702   1.00
H2       0.02162    0.63476    0.88038   1.00
C4       0.93791    0.43680    0.88525   1.00
C5       0.95122    0.38799    0.87258   1.00
H2       0.92925    0.38094    0.85960   1.00
H2       0.93332    0.34517    0.87950   1.00
H2       0.99932    0.40740    0.87062   1.00
C3       0.91017    0.51981    0.90993   1.00
H1       0.90014    0.54786    0.91779   1.00
C3       0.88312    0.41004    0.89976   1.00
H1       0.85546    0.36309    0.90086   1.00
C2       0.87027    0.45063    0.91178   1.00
C2       0.40732    0.55850    0.84543   1.00
C3       0.42144    0.57797    0.86467   1.00
H1       0.41150    0.61055    0.86955   1.00
C3       0.42064    0.50970    0.83871   1.00
H1       0.41021    0.49459    0.82538   1.00
C4       0.45005    0.55170    0.87765   1.00
C5       0.46594    0.57374    0.89969   1.00
H2       0.42619    0.54670    0.90785   1.00
H2       0.47896    0.62092    0.90088   1.00
H2       0.50258    0.56744    0.90429   1.00
C4       0.44913    0.48170    0.85121   1.00
C5       0.46254    0.42459    0.84353   1.00
H2       0.50873    0.44448    0.83890   1.00
H2       0.43196    0.40042    0.83260   1.00
H2       0.45524    0.39362    0.85440   1.00
C6       0.46308    0.50172    0.87106   1.00
C6       0.49267    0.47123    0.88467   1.00
C4       0.45074    0.41564    0.89666   1.00
C5       0.37575    0.38111    0.89412   1.00
H2       0.35732    0.40067    0.90328   1.00
H2       0.35626    0.33356    0.89702   1.00
H2       0.36524    0.38685    0.88038   1.00
C4       0.56320    0.50110    0.88525   1.00
C5       0.61201    0.56322    0.87258   1.00
H2       0.61906    0.54830    0.85960   1.00
H2       0.65483    0.58814    0.87950   1.00
H2       0.59260    0.59191    0.87062   1.00
C3       0.48019    0.39035    0.90993   1.00
H1       0.45214    0.35227    0.91779   1.00
C3       0.58996    0.47307    0.89976   1.00
H1       0.63691    0.49236    0.90086   1.00
C2       0.54937    0.41963    0.91178   1.00
C2       0.18215    0.10816    0.32123   1.00
C3       0.17680    0.08869    0.30199   1.00
H1       0.13428    0.05611    0.29711   1.00
C3       0.24427    0.15696    0.32795   1.00
H1       0.24895    0.17207    0.34128   1.00
C4       0.23168    0.11496    0.28901   1.00
C5       0.22553    0.09292    0.26697   1.00
H2       0.21282    0.11996    0.25881   1.00
H2       0.19137    0.04574    0.26578   1.00
H2       0.26847    0.09922    0.26237   1.00
C4       0.30076    0.18496    0.31545   1.00
C5       0.37128    0.24207    0.32313   1.00
H2       0.39758    0.22218    0.32776   1.00
H2       0.36487    0.26624    0.33406   1.00
H2       0.39495    0.27304    0.31226   1.00
C6       0.29469    0.16494    0.29560   1.00
C6       0.35477    0.19543    0.28199   1.00
C4       0.36843    0.25102    0.27000   1.00
C5       0.32797    0.28555    0.27254   1.00
H2       0.28998    0.26599    0.26338   1.00
H2       0.35603    0.33310    0.26964   1.00
H2       0.31172    0.27981    0.28628   1.00
C4       0.39543    0.16556    0.28141   1.00
C5       0.38212    0.10344    0.29408   1.00
H2       0.40409    0.11836    0.30706   1.00
H2       0.40002    0.07852    0.28716   1.00
H2       0.33402    0.07475    0.29604   1.00
C3       0.42317    0.27631    0.25673   1.00
H1       0.43320    0.31439    0.24887   1.00
C3       0.45022    0.19359    0.26690   1.00
H1       0.47788    0.17430    0.26580   1.00
C2       0.46307    0.24703    0.25488   1.00
C2       0.92602    0.81785    0.32123   1.00
C3       0.91190    0.82320    0.30199   1.00
H1       0.92184    0.86572    0.29711   1.00
C3       0.91270    0.75573    0.32795   1.00
H1       0.92313    0.75105    0.34128   1.00
C4       0.88329    0.76832    0.28901   1.00
C5       0.86740    0.77447    0.26697   1.00
H2       0.90715    0.78718    0.25881   1.00
H2       0.85438    0.80863    0.26578   1.00
H2       0.83076    0.73153    0.26237   1.00
C4       0.88421    0.69924    0.31545   1.00
C5       0.87080    0.62872    0.32313   1.00
H2       0.82461    0.60242    0.32776   1.00
H2       0.90138    0.63513    0.33406   1.00
H2       0.87810    0.60505    0.31226   1.00
C6       0.87026    0.70531    0.29560   1.00
C6       0.84067    0.64523    0.28199   1.00
C4       0.88260    0.63157    0.27000   1.00
C5       0.95759    0.67203    0.27254   1.00
H2       0.97602    0.71002    0.26338   1.00
H2       0.97708    0.64397    0.26964   1.00
H2       0.96810    0.68828    0.28628   1.00
C4       0.77014    0.60457    0.28141   1.00
C5       0.72133    0.61788    0.29408   1.00
H2       0.71428    0.59591    0.30706   1.00
H2       0.67851    0.59998    0.28716   1.00
H2       0.74074    0.66598    0.29604   1.00
C3       0.85315    0.57683    0.25673   1.00
H1       0.88120    0.56680    0.24887   1.00
C3       0.74338    0.54978    0.26690   1.00
H1       0.69643    0.52212    0.26580   1.00
C2       0.78397    0.53693    0.25488   1.00
C2       0.89184    0.07398    0.32123   1.00
C3       0.91131    0.08810    0.30199   1.00
H1       0.94389    0.07816    0.29711   1.00
C3       0.84304    0.08730    0.32795   1.00
H1       0.82793    0.07687    0.34128   1.00
C4       0.88504    0.11671    0.28901   1.00
C5       0.90708    0.13260    0.26697   1.00
H2       0.88004    0.09285    0.25881   1.00
H2       0.95426    0.14562    0.26578   1.00
H2       0.90078    0.16924    0.26237   1.00
C4       0.81504    0.11579    0.31545   1.00
C5       0.75793    0.12920    0.32313   1.00
H2       0.77782    0.17539    0.32776   1.00
H2       0.73376    0.09862    0.33406   1.00
H2       0.72696    0.12190    0.31226   1.00
C6       0.83506    0.12974    0.29560   1.00
C6       0.80457    0.15933    0.28199   1.00
C4       0.74898    0.11740    0.27000   1.00
C5       0.71445    0.04241    0.27254   1.00
H2       0.73401    0.02398    0.26338   1.00
H2       0.66690    0.02292    0.26964   1.00
H2       0.72019    0.03190    0.28628   1.00
C4       0.83444    0.22986    0.28141   1.00
C5       0.89656    0.27867    0.29408   1.00
H2       0.88164    0.28572    0.30706   1.00
H2       0.92148    0.32149    0.28716   1.00
H2       0.92525    0.25926    0.29604   1.00
C3       0.72369    0.14685    0.25673   1.00
H1       0.68561    0.11880    0.24887   1.00
C3       0.80641    0.25662    0.26690   1.00
H1       0.82570    0.30357    0.26580   1.00
C2       0.75297    0.21603    0.25488   1.00
C2       0.89184    0.81785    0.82123   1.00
C3       0.91131    0.82320    0.80199   1.00
H1       0.94389    0.86572    0.79711   1.00
C3       0.84304    0.75573    0.82795   1.00
H1       0.82793    0.75105    0.84128   1.00
C4       0.88504    0.76832    0.78901   1.00
C5       0.90708    0.77447    0.76697   1.00
H2       0.88004    0.78718    0.75881   1.00
H2       0.95426    0.80863    0.76578   1.00
H2       0.90078    0.73153    0.76237   1.00
C4       0.81504    0.69924    0.81545   1.00
C5       0.75793    0.62872    0.82313   1.00
H2       0.77782    0.60242    0.82776   1.00
H2       0.73376    0.63513    0.83406   1.00
H2       0.72696    0.60505    0.81226   1.00
C6       0.83506    0.70531    0.79560   1.00
C6       0.80457    0.64523    0.78199   1.00
C4       0.74898    0.63157    0.77000   1.00
C5       0.71445    0.67203    0.77254   1.00
H2       0.73401    0.71002    0.76338   1.00
H2       0.66690    0.64397    0.76964   1.00
H2       0.72019    0.68828    0.78628   1.00
C4       0.83444    0.60457    0.78141   1.00
C5       0.89656    0.61788    0.79408   1.00
H2       0.88164    0.59591    0.80706   1.00
H2       0.92148    0.59998    0.78716   1.00
H2       0.92525    0.66598    0.79604   1.00
C3       0.72369    0.57683    0.75673   1.00
H1       0.68561    0.56680    0.74887   1.00
C3       0.80641    0.54978    0.76690   1.00
H1       0.82570    0.52212    0.76580   1.00
C2       0.75297    0.53693    0.75488   1.00
C2       0.18215    0.07398    0.82123   1.00
C3       0.17680    0.08810    0.80199   1.00
H1       0.13428    0.07816    0.79711   1.00
C3       0.24427    0.08730    0.82795   1.00
H1       0.24895    0.07687    0.84128   1.00
C4       0.23168    0.11671    0.78901   1.00
C5       0.22553    0.13260    0.76697   1.00
H2       0.21282    0.09285    0.75881   1.00
H2       0.19137    0.14562    0.76578   1.00
H2       0.26847    0.16924    0.76237   1.00
C4       0.30076    0.11579    0.81545   1.00
C5       0.37128    0.12920    0.82313   1.00
H2       0.39758    0.17539    0.82776   1.00
H2       0.36487    0.09862    0.83406   1.00
H2       0.39495    0.12190    0.81226   1.00
C6       0.29469    0.12974    0.79560   1.00
C6       0.35477    0.15933    0.78199   1.00
C4       0.36843    0.11740    0.77000   1.00
C5       0.32797    0.04241    0.77254   1.00
H2       0.28998    0.02398    0.76338   1.00
H2       0.35603    0.02292    0.76964   1.00
H2       0.31172    0.03190    0.78628   1.00
C4       0.39543    0.22986    0.78141   1.00
C5       0.38212    0.27867    0.79408   1.00
H2       0.40409    0.28572    0.80706   1.00
H2       0.40002    0.32149    0.78716   1.00
H2       0.33402    0.25926    0.79604   1.00
C3       0.42317    0.14685    0.75673   1.00
H1       0.43320    0.11880    0.74887   1.00
C3       0.45022    0.25662    0.76690   1.00
H1       0.47788    0.30357    0.76580   1.00
C2       0.46307    0.21603    0.75488   1.00
C2       0.92602    0.10816    0.82123   1.00
C3       0.91190    0.08869    0.80199   1.00
H1       0.92184    0.05611    0.79711   1.00
C3       0.91270    0.15696    0.82795   1.00
H1       0.92313    0.17207    0.84128   1.00
C4       0.88329    0.11496    0.78901   1.00
C5       0.86740    0.09292    0.76697   1.00
H2       0.90715    0.11996    0.75881   1.00
H2       0.85438    0.04574    0.76578   1.00
H2       0.83076    0.09922    0.76237   1.00
C4       0.88421    0.18496    0.81545   1.00
C5       0.87080    0.24207    0.82313   1.00
H2       0.82461    0.22218    0.82776   1.00
H2       0.90138    0.26624    0.83406   1.00
H2       0.87810    0.27304    0.81226   1.00
C6       0.87026    0.16494    0.79560   1.00
C6       0.84067    0.19543    0.78199   1.00
C4       0.88260    0.25102    0.77000   1.00
C5       0.95759    0.28555    0.77254   1.00
H2       0.97602    0.26599    0.76338   1.00
H2       0.97708    0.33310    0.76964   1.00
H2       0.96810    0.27981    0.78628   1.00
C4       0.77014    0.16556    0.78141   1.00
C5       0.72133    0.10344    0.79408   1.00
H2       0.71428    0.11836    0.80706   1.00
H2       0.67851    0.07852    0.78716   1.00
H2       0.74074    0.07475    0.79604   1.00
C3       0.85315    0.27631    0.75673   1.00
H1       0.88120    0.31439    0.74887   1.00
C3       0.74338    0.19359    0.76690   1.00
H1       0.69643    0.17430    0.76580   1.00
C2       0.78397    0.24703    0.75488   1.00
C2       0.15119    0.55850    0.34543   1.00
C3       0.15654    0.57797    0.36467   1.00
H1       0.19906    0.61055    0.36955   1.00
C3       0.08907    0.50970    0.33871   1.00
H1       0.08439    0.49459    0.32538   1.00
C4       0.10166    0.55170    0.37765   1.00
C5       0.10781    0.57374    0.39969   1.00
H2       0.12052    0.54670    0.40785   1.00
H2       0.14197    0.62092    0.40088   1.00
H2       0.06487    0.56744    0.40429   1.00
C4       0.03258    0.48170    0.35121   1.00
C5       0.96206    0.42459    0.34353   1.00
H2       0.93576    0.44448    0.33890   1.00
H2       0.96847    0.40042    0.33260   1.00
H2       0.93839    0.39362    0.35440   1.00
C6       0.03865    0.50172    0.37106   1.00
C6       0.97857    0.47123    0.38467   1.00
C4       0.96491    0.41564    0.39666   1.00
C5       0.00537    0.38111    0.39412   1.00
H2       0.04336    0.40067    0.40328   1.00
H2       0.97731    0.33356    0.39702   1.00
H2       0.02162    0.38685    0.38038   1.00
C4       0.93791    0.50110    0.38525   1.00
C5       0.95122    0.56322    0.37258   1.00
H2       0.92925    0.54830    0.35960   1.00
H2       0.93332    0.58814    0.37950   1.00
H2       0.99932    0.59191    0.37062   1.00
C3       0.91017    0.39035    0.40993   1.00
H1       0.90014    0.35227    0.41779   1.00
C3       0.88312    0.47307    0.39976   1.00
H1       0.85546    0.49236    0.40086   1.00
C2       0.87027    0.41963    0.41178   1.00
C2       0.40732    0.84881    0.34543   1.00
C3       0.42144    0.84346    0.36467   1.00
H1       0.41150    0.80094    0.36955   1.00
C3       0.42064    0.91093    0.33871   1.00
H1       0.41021    0.91561    0.32538   1.00
C4       0.45005    0.89834    0.37765   1.00
C5       0.46594    0.89219    0.39969   1.00
H2       0.42619    0.87948    0.40785   1.00
H2       0.47896    0.85803    0.40088   1.00
H2       0.50258    0.93513    0.40429   1.00
C4       0.44913    0.96742    0.35121   1.00
C5       0.46254    0.03794    0.34353   1.00
H2       0.50873    0.06424    0.33890   1.00
H2       0.43196    0.03153    0.33260   1.00
H2       0.45524    0.06161    0.35440   1.00
C6       0.46308    0.96135    0.37106   1.00
C6       0.49267    0.02143    0.38467   1.00
C4       0.45074    0.03509    0.39666   1.00
C5       0.37575    0.99463    0.39412   1.00
H2       0.35732    0.95664    0.40328   1.00
H2       0.35626    0.02269    0.39702   1.00
H2       0.36524    0.97838    0.38038   1.00
C4       0.56320    0.06209    0.38525   1.00
C5       0.61201    0.04878    0.37258   1.00
H2       0.61906    0.07075    0.35960   1.00
H2       0.65483    0.06668    0.37950   1.00
H2       0.59260    0.00068    0.37062   1.00
C3       0.48019    0.08983    0.40993   1.00
H1       0.45214    0.09986    0.41779   1.00
C3       0.58996    0.11688    0.39976   1.00
H1       0.63691    0.14454    0.40086   1.00
C2       0.54937    0.12973    0.41178   1.00
C2       0.44150    0.59268    0.34543   1.00
C3       0.42203    0.57856    0.36467   1.00
H1       0.38945    0.58850    0.36955   1.00
C3       0.49030    0.57936    0.33871   1.00
H1       0.50541    0.58979    0.32538   1.00
C4       0.44830    0.54995    0.37765   1.00
C5       0.42626    0.53406    0.39969   1.00
H2       0.45330    0.57381    0.40785   1.00
H2       0.37908    0.52104    0.40088   1.00
H2       0.43256    0.49742    0.40429   1.00
C4       0.51830    0.55087    0.35121   1.00
C5       0.57541    0.53746    0.34353   1.00
H2       0.55552    0.49127    0.33890   1.00
H2       0.59958    0.56804    0.33260   1.00
H2       0.60638    0.54476    0.35440   1.00
C6       0.49828    0.53692    0.37106   1.00
C6       0.52877    0.50733    0.38467   1.00
C4       0.58436    0.54926    0.39666   1.00
C5       0.61889    0.62425    0.39412   1.00
H2       0.59933    0.64268    0.40328   1.00
H2       0.66644    0.64374    0.39702   1.00
H2       0.61315    0.63476    0.38038   1.00
C4       0.49890    0.43680    0.38525   1.00
C5       0.43678    0.38799    0.37258   1.00
H2       0.45170    0.38094    0.35960   1.00
H2       0.41186    0.34517    0.37950   1.00
H2       0.40809    0.40740    0.37062   1.00
C3       0.60965    0.51981    0.40993   1.00
H1       0.64773    0.54786    0.41779   1.00
C3       0.52693    0.41004    0.39976   1.00
H1       0.50764    0.36309    0.40086   1.00
C2       0.58037    0.45063    0.41178   1.00
C2       0.10816    0.18215    0.17877   1.00
C3       0.08869    0.17680    0.19801   1.00
H1       0.05611    0.13428    0.20289   1.00
C3       0.15696    0.24427    0.17205   1.00
H1       0.17207    0.24895    0.15872   1.00
C4       0.11496    0.23168    0.21099   1.00
C5       0.09292    0.22553    0.23303   1.00
H2       0.11996    0.21282    0.24119   1.00
H2       0.04574    0.19137    0.23422   1.00
H2       0.09922    0.26847    0.23763   1.00
C4       0.18496    0.30076    0.18455   1.00
C5       0.24207    0.37128    0.17687   1.00
H2       0.22218    0.39758    0.17224   1.00
H2       0.26624    0.36487    0.16594   1.00
H2       0.27304    0.39495    0.18774   1.00
C6       0.16494    0.29469    0.20440   1.00
C6       0.19543    0.35477    0.21801   1.00
C4       0.25102    0.36843    0.23000   1.00
C5       0.28555    0.32797    0.22746   1.00
H2       0.26599    0.28998    0.23662   1.00
H2       0.33310    0.35603    0.23036   1.00
H2       0.27981    0.31172    0.21372   1.00
C4       0.16556    0.39543    0.21859   1.00
C5       0.10344    0.38212    0.20592   1.00
H2       0.11836    0.40409    0.19294   1.00
H2       0.07852    0.40002    0.21284   1.00
H2       0.07475    0.33402    0.20396   1.00
C3       0.27631    0.42317    0.24327   1.00
H1       0.31439    0.43320    0.25113   1.00
C3       0.19359    0.45022    0.23310   1.00
H1       0.17430    0.47788    0.23420   1.00
C2       0.24703    0.46307    0.24512   1.00
C2       0.81785    0.92602    0.17877   1.00
C3       0.82320    0.91190    0.19801   1.00
H1       0.86572    0.92184    0.20289   1.00
C3       0.75573    0.91270    0.17205   1.00
H1       0.75105    0.92313    0.15872   1.00
C4       0.76832    0.88329    0.21099   1.00
C5       0.77447    0.86740    0.23303   1.00
H2       0.78718    0.90715    0.24119   1.00
H2       0.80863    0.85438    0.23422   1.00
H2       0.73153    0.83076    0.23763   1.00
C4       0.69924    0.88421    0.18455   1.00
C5       0.62872    0.87080    0.17687   1.00
H2       0.60242    0.82461    0.17224   1.00
H2       0.63513    0.90138    0.16594   1.00
H2       0.60505    0.87810    0.18774   1.00
C6       0.70531    0.87026    0.20440   1.00
C6       0.64523    0.84067    0.21801   1.00
C4       0.63157    0.88260    0.23000   1.00
C5       0.67203    0.95759    0.22746   1.00
H2       0.71002    0.97602    0.23662   1.00
H2       0.64397    0.97708    0.23036   1.00
H2       0.68828    0.96810    0.21372   1.00
C4       0.60457    0.77014    0.21859   1.00
C5       0.61788    0.72133    0.20592   1.00
H2       0.59591    0.71428    0.19294   1.00
H2       0.59998    0.67851    0.21284   1.00
H2       0.66598    0.74074    0.20396   1.00
C3       0.57683    0.85315    0.24327   1.00
H1       0.56680    0.88120    0.25113   1.00
C3       0.54978    0.74338    0.23310   1.00
H1       0.52212    0.69643    0.23420   1.00
C2       0.53693    0.78397    0.24512   1.00
C2       0.07398    0.89184    0.17877   1.00
C3       0.08810    0.91131    0.19801   1.00
H1       0.07816    0.94389    0.20289   1.00
C3       0.08730    0.84304    0.17205   1.00
H1       0.07687    0.82793    0.15872   1.00
C4       0.11671    0.88504    0.21099   1.00
C5       0.13260    0.90708    0.23303   1.00
H2       0.09285    0.88004    0.24119   1.00
H2       0.14562    0.95426    0.23422   1.00
H2       0.16924    0.90078    0.23763   1.00
C4       0.11579    0.81504    0.18455   1.00
C5       0.12920    0.75793    0.17687   1.00
H2       0.17539    0.77782    0.17224   1.00
H2       0.09862    0.73376    0.16594   1.00
H2       0.12190    0.72696    0.18774   1.00
C6       0.12974    0.83506    0.20440   1.00
C6       0.15933    0.80457    0.21801   1.00
C4       0.11740    0.74898    0.23000   1.00
C5       0.04241    0.71445    0.22746   1.00
H2       0.02398    0.73401    0.23662   1.00
H2       0.02292    0.66690    0.23036   1.00
H2       0.03190    0.72019    0.21372   1.00
C4       0.22986    0.83444    0.21859   1.00
C5       0.27867    0.89656    0.20592   1.00
H2       0.28572    0.88164    0.19294   1.00
H2       0.32149    0.92148    0.21284   1.00
H2       0.25926    0.92525    0.20396   1.00
C3       0.14685    0.72369    0.24327   1.00
H1       0.11880    0.68561    0.25113   1.00
C3       0.25662    0.80641    0.23310   1.00
H1       0.30357    0.82570    0.23420   1.00
C2       0.21603    0.75297    0.24512   1.00
C2       0.84881    0.44150    0.65457   1.00
C3       0.84346    0.42203    0.63533   1.00
H1       0.80094    0.38945    0.63045   1.00
C3       0.91093    0.49030    0.66129   1.00
H1       0.91561    0.50541    0.67462   1.00
C4       0.89834    0.44830    0.62235   1.00
C5       0.89219    0.42626    0.60031   1.00
H2       0.87948    0.45330    0.59215   1.00
H2       0.85803    0.37908    0.59912   1.00
H2       0.93513    0.43256    0.59571   1.00
C4       0.96742    0.51830    0.64879   1.00
C5       0.03794    0.57541    0.65647   1.00
H2       0.06424    0.55552    0.66110   1.00
H2       0.03153    0.59958    0.66740   1.00
H2       0.06161    0.60638    0.64560   1.00
C6       0.96135    0.49828    0.62894   1.00
C6       0.02143    0.52877    0.61533   1.00
C4       0.03509    0.58436    0.60334   1.00
C5       0.99463    0.61889    0.60588   1.00
H2       0.95664    0.59933    0.59672   1.00
H2       0.02269    0.66644    0.60298   1.00
H2       0.97838    0.61315    0.61962   1.00
C4       0.06209    0.49890    0.61475   1.00
C5       0.04878    0.43678    0.62742   1.00
H2       0.07075    0.45170    0.64040   1.00
H2       0.06668    0.41186    0.62050   1.00
H2       0.00068    0.40809    0.62938   1.00
C3       0.08983    0.60965    0.59007   1.00
H1       0.09986    0.64773    0.58221   1.00
C3       0.11688    0.52693    0.60024   1.00
H1       0.14454    0.50764    0.59914   1.00
C2       0.12973    0.58037    0.58822   1.00
C2       0.59268    0.15119    0.65457   1.00
C3       0.57856    0.15654    0.63533   1.00
H1       0.58850    0.19906    0.63045   1.00
C3       0.57936    0.08907    0.66129   1.00
H1       0.58979    0.08439    0.67462   1.00
C4       0.54995    0.10166    0.62235   1.00
C5       0.53406    0.10781    0.60031   1.00
H2       0.57381    0.12052    0.59215   1.00
H2       0.52104    0.14197    0.59912   1.00
H2       0.49742    0.06487    0.59571   1.00
C4       0.55087    0.03258    0.64879   1.00
C5       0.53746    0.96206    0.65647   1.00
H2       0.49127    0.93576    0.66110   1.00
H2       0.56804    0.96847    0.66740   1.00
H2       0.54476    0.93839    0.64560   1.00
C6       0.53692    0.03865    0.62894   1.00
C6       0.50733    0.97857    0.61533   1.00
C4       0.54926    0.96491    0.60334   1.00
C5       0.62425    0.00537    0.60588   1.00
H2       0.64268    0.04336    0.59672   1.00
H2       0.64374    0.97731    0.60298   1.00
H2       0.63476    0.02162    0.61962   1.00
C4       0.43680    0.93791    0.61475   1.00
C5       0.38799    0.95122    0.62742   1.00
H2       0.38094    0.92925    0.64040   1.00
H2       0.34517    0.93332    0.62050   1.00
H2       0.40740    0.99932    0.62938   1.00
C3       0.51981    0.91017    0.59007   1.00
H1       0.54786    0.90014    0.58221   1.00
C3       0.41004    0.88312    0.60024   1.00
H1       0.36309    0.85546    0.59914   1.00
C2       0.45063    0.87027    0.58822   1.00
C2       0.55850    0.40732    0.65457   1.00
C3       0.57797    0.42144    0.63533   1.00
H1       0.61055    0.41150    0.63045   1.00
C3       0.50970    0.42064    0.66129   1.00
H1       0.49459    0.41021    0.67462   1.00
C4       0.55170    0.45005    0.62235   1.00
C5       0.57374    0.46594    0.60031   1.00
H2       0.54670    0.42619    0.59215   1.00
H2       0.62092    0.47896    0.59912   1.00
H2       0.56744    0.50258    0.59571   1.00
C4       0.48170    0.44913    0.64879   1.00
C5       0.42459    0.46254    0.65647   1.00
H2       0.44448    0.50873    0.66110   1.00
H2       0.40042    0.43196    0.66740   1.00
H2       0.39362    0.45524    0.64560   1.00
C6       0.50172    0.46308    0.62894   1.00
C6       0.47123    0.49267    0.61533   1.00
C4       0.41564    0.45074    0.60334   1.00
C5       0.38111    0.37575    0.60588   1.00
H2       0.40067    0.35732    0.59672   1.00
H2       0.33356    0.35626    0.60298   1.00
H2       0.38685    0.36524    0.61962   1.00
C4       0.50110    0.56320    0.61475   1.00
C5       0.56322    0.61201    0.62742   1.00
H2       0.54830    0.61906    0.64040   1.00
H2       0.58814    0.65483    0.62050   1.00
H2       0.59191    0.59260    0.62938   1.00
C3       0.39035    0.48019    0.59007   1.00
H1       0.35227    0.45214    0.58221   1.00
C3       0.47307    0.58996    0.60024   1.00
H1       0.49236    0.63691    0.59914   1.00
C2       0.41963    0.54937    0.58822   1.00
C2       0.55850    0.15119    0.15457   1.00
C3       0.57797    0.15654    0.13533   1.00
H1       0.61055    0.19906    0.13045   1.00
C3       0.50970    0.08907    0.16129   1.00
H1       0.49459    0.08439    0.17462   1.00
C4       0.55170    0.10166    0.12235   1.00
C5       0.57374    0.10781    0.10031   1.00
H2       0.54670    0.12052    0.09215   1.00
H2       0.62092    0.14197    0.09912   1.00
H2       0.56744    0.06487    0.09571   1.00
C4       0.48170    0.03258    0.14879   1.00
C5       0.42459    0.96206    0.15647   1.00
H2       0.44448    0.93576    0.16110   1.00
H2       0.40042    0.96847    0.16740   1.00
H2       0.39362    0.93839    0.14560   1.00
C6       0.50172    0.03865    0.12894   1.00
C6       0.47123    0.97857    0.11533   1.00
C4       0.41564    0.96491    0.10334   1.00
C5       0.38111    0.00537    0.10588   1.00
H2       0.40067    0.04336    0.09672   1.00
H2       0.33356    0.97731    0.10298   1.00
H2       0.38685    0.02162    0.11962   1.00
C4       0.50110    0.93791    0.11475   1.00
C5       0.56322    0.95122    0.12742   1.00
H2       0.54830    0.92925    0.14040   1.00
H2       0.58814    0.93332    0.12050   1.00
H2       0.59191    0.99932    0.12938   1.00
C3       0.39035    0.91017    0.09007   1.00
H1       0.35227    0.90014    0.08221   1.00
C3       0.47307    0.88312    0.10024   1.00
H1       0.49236    0.85546    0.09914   1.00
C2       0.41963    0.87027    0.08822   1.00
C2       0.84881    0.40732    0.15457   1.00
C3       0.84346    0.42144    0.13533   1.00
H1       0.80094    0.41150    0.13045   1.00
C3       0.91093    0.42064    0.16129   1.00
H1       0.91561    0.41021    0.17462   1.00
C4       0.89834    0.45005    0.12235   1.00
C5       0.89219    0.46594    0.10031   1.00
H2       0.87948    0.42619    0.09215   1.00
H2       0.85803    0.47896    0.09912   1.00
H2       0.93513    0.50258    0.09571   1.00
C4       0.96742    0.44913    0.14879   1.00
C5       0.03794    0.46254    0.15647   1.00
H2       0.06424    0.50873    0.16110   1.00
H2       0.03153    0.43196    0.16740   1.00
H2       0.06161    0.45524    0.14560   1.00
C6       0.96135    0.46308    0.12894   1.00
C6       0.02143    0.49267    0.11533   1.00
C4       0.03509    0.45074    0.10334   1.00
C5       0.99463    0.37575    0.10588   1.00
H2       0.95664    0.35732    0.09672   1.00
H2       0.02269    0.35626    0.10298   1.00
H2       0.97838    0.36524    0.11962   1.00
C4       0.06209    0.56320    0.11475   1.00
C5       0.04878    0.61201    0.12742   1.00
H2       0.07075    0.61906    0.14040   1.00
H2       0.06668    0.65483    0.12050   1.00
H2       0.00068    0.59260    0.12938   1.00
C3       0.08983    0.48019    0.09007   1.00
H1       0.09986    0.45214    0.08221   1.00
C3       0.11688    0.58996    0.10024   1.00
H1       0.14454    0.63691    0.09914   1.00
C2       0.12973    0.54937    0.08822   1.00
C2       0.59268    0.44150    0.15457   1.00
C3       0.57856    0.42203    0.13533   1.00
H1       0.58850    0.38945    0.13045   1.00
C3       0.57936    0.49030    0.16129   1.00
H1       0.58979    0.50541    0.17462   1.00
C4       0.54995    0.44830    0.12235   1.00
C5       0.53406    0.42626    0.10031   1.00
H2       0.57381    0.45330    0.09215   1.00
H2       0.52104    0.37908    0.09912   1.00
H2       0.49742    0.43256    0.09571   1.00
C4       0.55087    0.51830    0.14879   1.00
C5       0.53746    0.57541    0.15647   1.00
H2       0.49127    0.55552    0.16110   1.00
H2       0.56804    0.59958    0.16740   1.00
H2       0.54476    0.60638    0.14560   1.00
C6       0.53692    0.49828    0.12894   1.00
C6       0.50733    0.52877    0.11533   1.00
C4       0.54926    0.58436    0.10334   1.00
C5       0.62425    0.61889    0.10588   1.00
H2       0.64268    0.59933    0.09672   1.00
H2       0.64374    0.66644    0.10298   1.00
H2       0.63476    0.61315    0.11962   1.00
C4       0.43680    0.49890    0.11475   1.00
C5       0.38799    0.43678    0.12742   1.00
H2       0.38094    0.45170    0.14040   1.00
H2       0.34517    0.41186    0.12050   1.00
H2       0.40740    0.40809    0.12938   1.00
C3       0.51981    0.60965    0.09007   1.00
H1       0.54786    0.64773    0.08221   1.00
C3       0.41004    0.52693    0.10024   1.00
H1       0.36309    0.50764    0.09914   1.00
C2       0.45063    0.58037    0.08822   1.00
C2       0.81785    0.89184    0.67877   1.00
C3       0.82320    0.91131    0.69801   1.00
H1       0.86572    0.94389    0.70289   1.00
C3       0.75573    0.84304    0.67205   1.00
H1       0.75105    0.82793    0.65872   1.00
C4       0.76832    0.88504    0.71099   1.00
C5       0.77447    0.90708    0.73303   1.00
H2       0.78718    0.88004    0.74119   1.00
H2       0.80863    0.95426    0.73422   1.00
H2       0.73153    0.90078    0.73763   1.00
C4       0.69924    0.81504    0.68455   1.00
C5       0.62872    0.75793    0.67687   1.00
H2       0.60242    0.77782    0.67224   1.00
H2       0.63513    0.73376    0.66594   1.00
H2       0.60505    0.72696    0.68774   1.00
C6       0.70531    0.83506    0.70440   1.00
C6       0.64523    0.80457    0.71801   1.00
C4       0.63157    0.74898    0.73000   1.00
C5       0.67203    0.71445    0.72746   1.00
H2       0.71002    0.73401    0.73662   1.00
H2       0.64397    0.66690    0.73036   1.00
H2       0.68828    0.72019    0.71372   1.00
C4       0.60457    0.83444    0.71859   1.00
C5       0.61788    0.89656    0.70592   1.00
H2       0.59591    0.88164    0.69294   1.00
H2       0.59998    0.92148    0.71284   1.00
H2       0.66598    0.92525    0.70396   1.00
C3       0.57683    0.72369    0.74327   1.00
H1       0.56680    0.68561    0.75113   1.00
C3       0.54978    0.80641    0.73310   1.00
H1       0.52212    0.82570    0.73420   1.00
C2       0.53693    0.75297    0.74512   1.00
C2       0.07398    0.18215    0.67877   1.00
C3       0.08810    0.17680    0.69801   1.00
H1       0.07816    0.13428    0.70289   1.00
C3       0.08730    0.24427    0.67205   1.00
H1       0.07687    0.24895    0.65872   1.00
C4       0.11671    0.23168    0.71099   1.00
C5       0.13260    0.22553    0.73303   1.00
H2       0.09285    0.21282    0.74119   1.00
H2       0.14562    0.19137    0.73422   1.00
H2       0.16924    0.26847    0.73763   1.00
C4       0.11579    0.30076    0.68455   1.00
C5       0.12920    0.37128    0.67687   1.00
H2       0.17539    0.39758    0.67224   1.00
H2       0.09862    0.36487    0.66594   1.00
H2       0.12190    0.39495    0.68774   1.00
C6       0.12974    0.29469    0.70440   1.00
C6       0.15933    0.35477    0.71801   1.00
C4       0.11740    0.36843    0.73000   1.00
C5       0.04241    0.32797    0.72746   1.00
H2       0.02398    0.28998    0.73662   1.00
H2       0.02292    0.35603    0.73036   1.00
H2       0.03190    0.31172    0.71372   1.00
C4       0.22986    0.39543    0.71859   1.00
C5       0.27867    0.38212    0.70592   1.00
H2       0.28572    0.40409    0.69294   1.00
H2       0.32149    0.40002    0.71284   1.00
H2       0.25926    0.33402    0.70396   1.00
C3       0.14685    0.42317    0.74327   1.00
H1       0.11880    0.43320    0.75113   1.00
C3       0.25662    0.45022    0.73310   1.00
H1       0.30357    0.47788    0.73420   1.00
C2       0.21603    0.46307    0.74512   1.00
C2       0.10816    0.92602    0.67877   1.00
C3       0.08869    0.91190    0.69801   1.00
H1       0.05611    0.92184    0.70289   1.00
C3       0.15696    0.91270    0.67205   1.00
H1       0.17207    0.92313    0.65872   1.00
C4       0.11496    0.88329    0.71099   1.00
C5       0.09292    0.86740    0.73303   1.00
H2       0.11996    0.90715    0.74119   1.00
H2       0.04574    0.85438    0.73422   1.00
H2       0.09922    0.83076    0.73763   1.00
C4       0.18496    0.88421    0.68455   1.00
C5       0.24207    0.87080    0.67687   1.00
H2       0.22218    0.82461    0.67224   1.00
H2       0.26624    0.90138    0.66594   1.00
H2       0.27304    0.87810    0.68774   1.00
C6       0.16494    0.87026    0.70440   1.00
C6       0.19543    0.84067    0.71801   1.00
C4       0.25102    0.88260    0.73000   1.00
C5       0.28555    0.95759    0.72746   1.00
H2       0.26599    0.97602    0.73662   1.00
H2       0.33310    0.97708    0.73036   1.00
H2       0.27981    0.96810    0.71372   1.00
C4       0.16556    0.77014    0.71859   1.00
C5       0.10344    0.72133    0.70592   1.00
H2       0.11836    0.71428    0.69294   1.00
H2       0.07852    0.67851    0.71284   1.00
H2       0.07475    0.74074    0.70396   1.00
C3       0.27631    0.85315    0.74327   1.00
H1       0.31439    0.88120    0.75113   1.00
C3       0.19359    0.74338    0.73310   1.00
H1       0.17430    0.69643    0.73420   1.00
C2       0.24703    0.78397    0.74512   1.00
