data_IRMOF10_interpen_symm_ligand1lp_symm_h

_audit_creation_method             'generated by an auxiliary program of Tobunporous'

_symmetry_space_group_name_H-M     'P 1'
_symmetry_Int_Tables_number        1
_symmetry_cell_setting             triclinic

_cell_length_a                    22.6523
_cell_length_b                    22.6523
_cell_length_c                    65.9502
_cell_angle_alpha                 90.0000
_cell_angle_beta                  90.0000
_cell_angle_gamma                 120.0000

loop_
_atom_site_label
_atom_site_fract_x
_atom_site_fract_y
_atom_site_fract_z
_atom_site_occupancy
O1       0.00000    -0.00000   0.62500   1.00
Zn      0.00000    -0.00000   0.59589   1.00
Zn      0.94848    1.04288    0.63392   1.00
Zn      0.09439    0.05152    0.63392   1.00
Zn      -0.04288   0.90561    0.63392   1.00
O2       0.93860    0.02610    0.58587   1.00
O2       0.08750    0.06140    0.58587   1.00
O2       -0.02610   0.91250    0.58587   1.00
O2       0.91305    0.07161    0.61181   1.00
O2       0.00462    0.12022    0.65110   1.00
O2       0.87413    0.98074    0.65071   1.00
O2       0.15856    0.08695    0.61181   1.00
O2       0.10660    0.12587    0.65071   1.00
O2       0.11559    0.99538    0.65110   1.00
O2       -0.07161   0.84144    0.61181   1.00
O2       0.87978    0.88441    0.65110   1.00
O2       0.01926    0.89340    0.65071   1.00
C1       0.91390    0.06020    0.59358   1.00
C1       0.14630    0.08610    0.59358   1.00
C1       -0.06020   0.85370    0.59358   1.00
C1       0.06663    0.14397    0.65673   1.00
C1       0.85603    0.92267    0.65673   1.00
C1       0.07733    0.93337    0.65673   1.00
O1       -0.00000   0.00000    0.87500   1.00
Zn      -0.00000   0.00000    0.90411   1.00
Zn      1.04288    0.94848    0.86608   1.00
Zn      0.05152    0.09439    0.86608   1.00
Zn      0.90561    -0.04288   0.86608   1.00
O2       0.02610    0.93860    0.91413   1.00
O2       0.06140    0.08750    0.91413   1.00
O2       0.91250    -0.02610   0.91413   1.00
O2       0.07161    0.91305    0.88819   1.00
O2       0.12022    0.00462    0.84890   1.00
O2       0.98074    0.87413    0.84929   1.00
O2       0.08695    0.15856    0.88819   1.00
O2       0.12587    0.10660    0.84929   1.00
O2       0.99538    0.11559    0.84890   1.00
O2       0.84144    -0.07161   0.88819   1.00
O2       0.88441    0.87978    0.84890   1.00
O2       0.89340    0.01926    0.84929   1.00
C1       0.06020    0.91390    0.90642   1.00
C1       0.08610    0.14630    0.90642   1.00
C1       0.85370    -0.06020   0.90642   1.00
C1       0.14397    0.06663    0.84327   1.00
C1       0.92267    0.85603    0.84327   1.00
C1       0.93337    0.07733    0.84327   1.00
O1       0.00000    0.00000    0.37500   1.00
Zn      0.00000    0.00000    0.40411   1.00
Zn      0.05152    -0.04288   0.36608   1.00
Zn      0.90561    0.94848    0.36608   1.00
Zn      1.04288    0.09439    0.36608   1.00
O2       0.06140    -0.02610   0.41413   1.00
O2       0.91250    0.93860    0.41413   1.00
O2       0.02610    0.08750    0.41413   1.00
O2       0.08695    -0.07161   0.38819   1.00
O2       0.99538    0.87978    0.34890   1.00
O2       0.12587    0.01926    0.34929   1.00
O2       0.84144    0.91305    0.38819   1.00
O2       0.89340    0.87413    0.34929   1.00
O2       0.88441    0.00462    0.34890   1.00
O2       0.07161    0.15856    0.38819   1.00
O2       0.12022    0.11559    0.34890   1.00
O2       0.98074    0.10660    0.34929   1.00
C1       0.08610    -0.06020   0.40642   1.00
C1       0.85370    0.91390    0.40642   1.00
C1       0.06020    0.14630    0.40642   1.00
C1       0.93337    0.85603    0.34327   1.00
C1       0.14397    0.07733    0.34327   1.00
C1       0.92267    0.06663    0.34327   1.00
O1       0.00000    0.00000    0.12500   1.00
Zn      0.00000    0.00000    0.09589   1.00
Zn      -0.04288   0.05152    0.13392   1.00
Zn      0.94848    0.90561    0.13392   1.00
Zn      0.09439    1.04288    0.13392   1.00
O2       -0.02610   0.06140    0.08587   1.00
O2       0.93860    0.91250    0.08587   1.00
O2       0.08750    0.02610    0.08587   1.00
O2       -0.07161   0.08695    0.11181   1.00
O2       0.87978    0.99538    0.15110   1.00
O2       0.01926    0.12587    0.15071   1.00
O2       0.91305    0.84144    0.11181   1.00
O2       0.87413    0.89340    0.15071   1.00
O2       0.00462    0.88441    0.15110   1.00
O2       0.15856    0.07161    0.11181   1.00
O2       0.11559    0.12022    0.15110   1.00
O2       0.10660    0.98074    0.15071   1.00
C1       -0.06020   0.08610    0.09358   1.00
C1       0.91390    0.85370    0.09358   1.00
C1       0.14630    0.06020    0.09358   1.00
C1       0.85603    0.93337    0.15673   1.00
C1       0.07733    0.14397    0.15673   1.00
C1       0.06663    0.92267    0.15673   1.00
O1       0.66667    0.33333    0.95833   1.00
Zn      0.66667    0.33333    0.92922   1.00
Zn      0.61515    0.37621    0.96725   1.00
Zn      0.76106    0.38485    0.96725   1.00
Zn      -0.37621   0.23894    0.96725   1.00
O2       0.60527    0.35943    0.91920   1.00
O2       0.75417    0.39473    0.91920   1.00
O2       0.64057    0.24583    0.91920   1.00
O2       0.57972    0.40494    0.94514   1.00
O2       0.67129    0.45355    0.98443   1.00
O2       0.54080    0.31407    0.98404   1.00
O2       0.82523    0.42028    0.94514   1.00
O2       0.77327    0.45920    0.98404   1.00
O2       -0.21774   0.32871    0.98443   1.00
O2       0.59506    0.17477    0.94514   1.00
O2       0.54645    0.21774    0.98443   1.00
O2       -0.31407   0.22673    0.98404   1.00
C1       0.58057    0.39353    0.92691   1.00
C1       0.81297    0.41943    0.92691   1.00
C1       0.60647    0.18703    0.92691   1.00
C1       0.73330    0.47730    0.99006   1.00
C1       0.52270    0.25600    0.99006   1.00
C1       -0.25600   0.26670    0.99006   1.00
O1       0.66667    0.33333    0.20833   1.00
Zn      0.66667    0.33333    0.23744   1.00
Zn      0.70954    0.28182    0.19942   1.00
Zn      0.71818    0.42773    0.19942   1.00
Zn      0.57227    0.29046    0.19942   1.00
O2       0.69277    0.27193    0.24746   1.00
O2       0.72807    0.42083    0.24746   1.00
O2       0.57917    0.30723    0.24746   1.00
O2       0.73828    0.24638    0.22152   1.00
O2       0.78688    0.33796    0.18224   1.00
O2       0.64740    0.20747    0.18263   1.00
O2       0.75362    0.49189    0.22152   1.00
O2       0.79253    0.43994    0.18263   1.00
O2       0.66204    0.44893    0.18224   1.00
O2       0.50811    0.26172    0.22152   1.00
O2       0.55107    0.21312    0.18224   1.00
O2       0.56006    0.35260    0.18263   1.00
C1       0.72687    0.24723    0.23975   1.00
C1       0.75277    0.47963    0.23975   1.00
C1       0.52037    0.27313    0.23975   1.00
C1       0.81063    0.39997    0.17661   1.00
C1       0.58933    0.18937    0.17661   1.00
C1       0.60003    0.41067    0.17661   1.00
O1       0.66667    0.33333    0.70833   1.00
Zn      0.66667    0.33333    0.73744   1.00
Zn      0.71818    0.29046    0.69942   1.00
Zn      0.57227    0.28182    0.69942   1.00
Zn      0.70954    0.42773    0.69942   1.00
O2       0.72807    0.30723    0.74746   1.00
O2       0.57917    0.27193    0.74746   1.00
O2       0.69277    0.42083    0.74746   1.00
O2       0.75362    0.26172    0.72152   1.00
O2       0.66204    0.21312    0.68224   1.00
O2       0.79253    0.35260    0.68263   1.00
O2       0.50811    0.24638    0.72152   1.00
O2       0.56006    0.20747    0.68263   1.00
O2       0.55107    0.33796    0.68224   1.00
O2       0.73828    0.49189    0.72152   1.00
O2       0.78688    0.44893    0.68224   1.00
O2       0.64740    0.43994    0.68263   1.00
C1       0.75277    0.27313    0.73975   1.00
C1       0.52037    0.24723    0.73975   1.00
C1       0.72687    0.47963    0.73975   1.00
C1       0.60003    0.18937    0.67661   1.00
C1       0.81063    0.41067    0.67661   1.00
C1       0.58933    0.39997    0.67661   1.00
O1       0.66667    0.33333    0.45833   1.00
Zn      0.66667    0.33333    0.42922   1.00
Zn      -0.37621   0.38485    0.46725   1.00
Zn      0.61515    0.23894    0.46725   1.00
Zn      0.76106    0.37621    0.46725   1.00
O2       0.64057    0.39473    0.41920   1.00
O2       0.60527    0.24583    0.41920   1.00
O2       0.75417    0.35943    0.41920   1.00
O2       0.59506    0.42028    0.44514   1.00
O2       0.54645    0.32871    0.48443   1.00
O2       -0.31407   0.45920    0.48404   1.00
O2       0.57972    0.17477    0.44514   1.00
O2       0.54080    0.22673    0.48404   1.00
O2       0.67129    0.21774    0.48443   1.00
O2       0.82523    0.40494    0.44514   1.00
O2       -0.21774   0.45355    0.48443   1.00
O2       0.77327    0.31407    0.48404   1.00
C1       0.60647    0.41943    0.42691   1.00
C1       0.58057    0.18703    0.42691   1.00
C1       0.81297    0.39353    0.42691   1.00
C1       0.52270    0.26670    0.49006   1.00
C1       -0.25600   0.47730    0.49006   1.00
C1       0.73330    0.25600    0.49006   1.00
O1       0.33333    0.66667    0.29167   1.00
Zn      0.33333    0.66667    0.26256   1.00
Zn      0.28182    0.70954    0.30058   1.00
Zn      0.42773    0.71818    0.30058   1.00
Zn      0.29046    0.57227    0.30058   1.00
O2       0.27193    0.69277    0.25254   1.00
O2       0.42083    0.72807    0.25254   1.00
O2       0.30723    0.57917    0.25254   1.00
O2       0.24638    0.73828    0.27848   1.00
O2       0.33796    0.78688    0.31776   1.00
O2       0.20747    0.64740    0.31737   1.00
O2       0.49189    0.75362    0.27848   1.00
O2       0.43994    0.79253    0.31737   1.00
O2       0.44893    0.66204    0.31776   1.00
O2       0.26172    0.50811    0.27848   1.00
O2       0.21312    0.55107    0.31776   1.00
O2       0.35260    0.56006    0.31737   1.00
C1       0.24723    0.72687    0.26025   1.00
C1       0.47963    0.75277    0.26025   1.00
C1       0.27313    0.52037    0.26025   1.00
C1       0.39997    0.81063    0.32339   1.00
C1       0.18937    0.58933    0.32339   1.00
C1       0.41067    0.60003    0.32339   1.00
O1       0.33333    0.66667    0.54167   1.00
Zn      0.33333    0.66667    0.57078   1.00
Zn      0.37621    0.61515    0.53275   1.00
Zn      0.38485    0.76106    0.53275   1.00
Zn      0.23894    -0.37621   0.53275   1.00
O2       0.35943    0.60527    0.58080   1.00
O2       0.39473    0.75417    0.58080   1.00
O2       0.24583    0.64057    0.58080   1.00
O2       0.40494    0.57972    0.55486   1.00
O2       0.45355    0.67129    0.51557   1.00
O2       0.31407    0.54080    0.51596   1.00
O2       0.42028    0.82523    0.55486   1.00
O2       0.45920    0.77327    0.51596   1.00
O2       0.32871    -0.21774   0.51557   1.00
O2       0.17477    0.59506    0.55486   1.00
O2       0.21774    0.54645    0.51557   1.00
O2       0.22673    -0.31407   0.51596   1.00
C1       0.39353    0.58057    0.57309   1.00
C1       0.41943    0.81297    0.57309   1.00
C1       0.18703    0.60647    0.57309   1.00
C1       0.47730    0.73330    0.50994   1.00
C1       0.25600    0.52270    0.50994   1.00
C1       0.26670    -0.25600   0.50994   1.00
O1       0.33333    0.66667    0.04167   1.00
Zn      0.33333    0.66667    0.07078   1.00
Zn      0.38485    -0.37621   0.03275   1.00
Zn      0.23894    0.61515    0.03275   1.00
Zn      0.37621    0.76106    0.03275   1.00
O2       0.39473    0.64057    0.08080   1.00
O2       0.24583    0.60527    0.08080   1.00
O2       0.35943    0.75417    0.08080   1.00
O2       0.42028    0.59506    0.05486   1.00
O2       0.32871    0.54645    0.01557   1.00
O2       0.45920    -0.31407   0.01596   1.00
O2       0.17477    0.57972    0.05486   1.00
O2       0.22673    0.54080    0.01596   1.00
O2       0.21774    0.67129    0.01557   1.00
O2       0.40494    0.82523    0.05486   1.00
O2       0.45355    -0.21774   0.01557   1.00
O2       0.31407    0.77327    0.01596   1.00
C1       0.41943    0.60647    0.07309   1.00
C1       0.18703    0.58057    0.07309   1.00
C1       0.39353    0.81297    0.07309   1.00
C1       0.26670    0.52270    0.00994   1.00
C1       0.47730    -0.25600   0.00994   1.00
C1       0.25600    0.73330    0.00994   1.00
O1       0.33333    0.66667    0.79167   1.00
Zn      0.33333    0.66667    0.76256   1.00
Zn      0.29046    0.71818    0.80058   1.00
Zn      0.28182    0.57227    0.80058   1.00
Zn      0.42773    0.70954    0.80058   1.00
O2       0.30723    0.72807    0.75254   1.00
O2       0.27193    0.57917    0.75254   1.00
O2       0.42083    0.69277    0.75254   1.00
O2       0.26172    0.75362    0.77848   1.00
O2       0.21312    0.66204    0.81776   1.00
O2       0.35260    0.79253    0.81737   1.00
O2       0.24638    0.50811    0.77848   1.00
O2       0.20747    0.56006    0.81737   1.00
O2       0.33796    0.55107    0.81776   1.00
O2       0.49189    0.73828    0.77848   1.00
O2       0.44893    0.78688    0.81776   1.00
O2       0.43994    0.64740    0.81737   1.00
C1       0.27313    0.75277    0.76025   1.00
C1       0.24723    0.52037    0.76025   1.00
C1       0.47963    0.72687    0.76025   1.00
C1       0.18937    0.60003    0.82339   1.00
C1       0.41067    0.81063    0.82339   1.00
C1       0.39997    0.58933    0.82339   1.00
C2       -0.22150   0.53623    0.50501   1.00
C3       -0.24775   0.57624    0.50846   1.00
H1       -0.28572   0.56906    0.50105   1.00
C3       -0.16712   0.54641    0.51632   1.00
H1       -0.14858   0.51833    0.51437   1.00
C4       -0.22102   0.62778    0.52260   1.00
C5       -0.25122   0.67340    0.52663   1.00
H2       -0.28713   0.65215    0.53648   1.00
H2       -0.26930   0.68020    0.51426   1.00
H2       -0.21640   0.71658    0.53171   1.00
C4       -0.13871   0.59738    0.53074   1.00
C5       -0.07759   0.60749    0.54398   1.00
H2       -0.03578   0.64146    0.53793   1.00
H2       -0.07761   0.56523    0.54494   1.00
H2       -0.08169   0.62213    0.55727   1.00
C6       -0.16639   0.63808    0.53430   1.00
C6       -0.13692   0.69219    0.54994   1.00
C4       -0.16277   0.67929    0.56948   1.00
C5       -0.21434   0.60904    0.57551   1.00
H2       -0.25919   0.60235    0.57337   1.00
H2       -0.20872   0.60238    0.58956   1.00
H2       -0.20842   0.57693    0.56747   1.00
C4       -0.08409   0.75591    0.54421   1.00
C5       -0.05430   0.77333    0.52277   1.00
H2       -0.01842   0.76249    0.52153   1.00
H2       -0.03622   0.82102    0.52026   1.00
H2       -0.08940   0.74715    0.51311   1.00
C3       -0.13623   0.73192    0.58350   1.00
H1       -0.15272   0.72319    0.59675   1.00
C3       -0.06043   0.80831    0.55946   1.00
H1       -0.02595   0.85191    0.55613   1.00
C2       -0.08630   0.79640    0.57845   1.00
C2       0.46377    0.24227    0.50501   1.00
C3       0.42376    0.17601    0.50846   1.00
H1       0.43094    0.14522    0.50105   1.00
C3       0.45359    0.28647    0.51632   1.00
H1       0.48167    0.33309    0.51437   1.00
C4       0.37222    0.15120    0.52260   1.00
C5       0.32660    0.07538    0.52663   1.00
H2       0.34785    0.06072    0.53648   1.00
H2       0.31980    0.05050    0.51426   1.00
H2       0.28342    0.06702    0.53171   1.00
C4       0.40262    0.26391    0.53074   1.00
C5       0.39251    0.31492    0.54398   1.00
H2       0.35854    0.32276    0.53793   1.00
H2       0.43477    0.35716    0.54494   1.00
H2       0.37787    0.29618    0.55727   1.00
C6       0.36192    0.19553    0.53430   1.00
C6       0.30781    0.17089    0.54994   1.00
C4       0.32071    0.15794    0.56948   1.00
C5       0.39096    0.17662    0.57551   1.00
H2       0.39765    0.13846    0.57337   1.00
H2       0.39762    0.18890    0.58956   1.00
H2       0.42307    0.21465    0.56747   1.00
C4       0.24409    0.16000    0.54421   1.00
C5       0.22667    0.17237    0.52277   1.00
H2       0.23751    0.21909    0.52153   1.00
H2       0.17898    0.14276    0.52026   1.00
H2       0.25285    0.16345    0.51311   1.00
C3       0.26808    0.13185    0.58350   1.00
H1       0.27681    0.12409    0.59675   1.00
C3       0.19169    0.13126    0.55946   1.00
H1       0.14809    0.12214    0.55613   1.00
C2       0.20360    0.11730    0.57845   1.00
C2       0.75773    0.22150    0.50501   1.00
C3       0.82399    0.24775    0.50846   1.00
H1       0.85478    0.28572    0.50105   1.00
C3       0.71353    0.16712    0.51632   1.00
H1       0.66691    0.14858    0.51437   1.00
C4       0.84880    0.22102    0.52260   1.00
C5       0.92462    0.25122    0.52663   1.00
H2       0.93928    0.28713    0.53648   1.00
H2       0.94950    0.26930    0.51426   1.00
H2       0.93298    0.21640    0.53171   1.00
C4       0.73609    0.13871    0.53074   1.00
C5       0.68508    0.07759    0.54398   1.00
H2       0.67724    0.03578    0.53793   1.00
H2       0.64284    0.07761    0.54494   1.00
H2       0.70382    0.08169    0.55727   1.00
C6       0.80447    0.16639    0.53430   1.00
C6       0.82911    0.13692    0.54994   1.00
C4       0.84206    0.16277    0.56948   1.00
C5       0.82338    0.21434    0.57551   1.00
H2       0.86154    0.25919    0.57337   1.00
H2       0.81110    0.20872    0.58956   1.00
H2       0.78535    0.20842    0.56747   1.00
C4       0.84000    0.08409    0.54421   1.00
C5       0.82763    0.05430    0.52277   1.00
H2       0.78091    0.01842    0.52153   1.00
H2       0.85724    0.03622    0.52026   1.00
H2       0.83655    0.08940    0.51311   1.00
C3       0.86815    0.13623    0.58350   1.00
H1       0.87591    0.15272    0.59675   1.00
C3       0.86874    0.06043    0.55946   1.00
H1       0.87786    0.02595    0.55613   1.00
C2       0.88270    0.08630    0.57845   1.00
C2       0.53623    -0.22150   0.99499   1.00
C3       0.57624    -0.24775   0.99154   1.00
H1       0.56906    -0.28572   0.99895   1.00
C3       0.54641    -0.16712   0.98368   1.00
H1       0.51833    -0.14858   0.98563   1.00
C4       0.62778    -0.22102   0.97740   1.00
C5       0.67340    -0.25122   0.97337   1.00
H2       0.65215    -0.28713   0.96352   1.00
H2       0.68020    -0.26930   0.98574   1.00
H2       0.71658    -0.21640   0.96829   1.00
C4       0.59738    -0.13871   0.96926   1.00
C5       0.60749    -0.07759   0.95602   1.00
H2       0.64146    -0.03578   0.96207   1.00
H2       0.56523    -0.07761   0.95506   1.00
H2       0.62213    -0.08169   0.94273   1.00
C6       0.63808    -0.16639   0.96570   1.00
C6       0.69219    -0.13692   0.95006   1.00
C4       0.67929    -0.16277   0.93052   1.00
C5       0.60904    -0.21434   0.92449   1.00
H2       0.60235    -0.25919   0.92663   1.00
H2       0.60238    -0.20872   0.91044   1.00
H2       0.57693    -0.20842   0.93253   1.00
C4       0.75591    -0.08409   0.95579   1.00
C5       0.77333    -0.05430   0.97723   1.00
H2       0.76249    -0.01842   0.97847   1.00
H2       0.82102    -0.03622   0.97974   1.00
H2       0.74715    -0.08940   0.98689   1.00
C3       0.73192    -0.13623   0.91650   1.00
H1       0.72319    -0.15272   0.90325   1.00
C3       0.80831    -0.06043   0.94054   1.00
H1       0.85191    -0.02595   0.94387   1.00
C2       0.79640    -0.08630   0.92155   1.00
C2       0.24227    0.46377    0.99499   1.00
C3       0.17601    0.42376    0.99154   1.00
H1       0.14522    0.43094    0.99895   1.00
C3       0.28647    0.45359    0.98368   1.00
H1       0.33309    0.48167    0.98563   1.00
C4       0.15120    0.37222    0.97740   1.00
C5       0.07538    0.32660    0.97337   1.00
H2       0.06072    0.34785    0.96352   1.00
H2       0.05050    0.31980    0.98574   1.00
H2       0.06702    0.28342    0.96829   1.00
C4       0.26391    0.40262    0.96926   1.00
C5       0.31492    0.39251    0.95602   1.00
H2       0.32276    0.35854    0.96207   1.00
H2       0.35716    0.43477    0.95506   1.00
H2       0.29618    0.37787    0.94273   1.00
C6       0.19553    0.36192    0.96570   1.00
C6       0.17089    0.30781    0.95006   1.00
C4       0.15794    0.32071    0.93052   1.00
C5       0.17662    0.39096    0.92449   1.00
H2       0.13846    0.39765    0.92663   1.00
H2       0.18890    0.39762    0.91044   1.00
H2       0.21465    0.42307    0.93253   1.00
C4       0.16000    0.24409    0.95579   1.00
C5       0.17237    0.22667    0.97723   1.00
H2       0.21909    0.23751    0.97847   1.00
H2       0.14276    0.17898    0.97974   1.00
H2       0.16345    0.25285    0.98689   1.00
C3       0.13185    0.26808    0.91650   1.00
H1       0.12409    0.27681    0.90325   1.00
C3       0.13126    0.19169    0.94054   1.00
H1       0.12214    0.14809    0.94387   1.00
C2       0.11730    0.20360    0.92155   1.00
C2       0.22150    0.75773    0.99499   1.00
C3       0.24775    0.82399    0.99154   1.00
H1       0.28572    0.85478    0.99895   1.00
C3       0.16712    0.71353    0.98368   1.00
H1       0.14858    0.66691    0.98563   1.00
C4       0.22102    0.84880    0.97740   1.00
C5       0.25122    0.92462    0.97337   1.00
H2       0.28713    0.93928    0.96352   1.00
H2       0.26930    0.94950    0.98574   1.00
H2       0.21640    0.93298    0.96829   1.00
C4       0.13871    0.73609    0.96926   1.00
C5       0.07759    0.68508    0.95602   1.00
H2       0.03578    0.67724    0.96207   1.00
H2       0.07761    0.64284    0.95506   1.00
H2       0.08169    0.70382    0.94273   1.00
C6       0.16639    0.80447    0.96570   1.00
C6       0.13692    0.82911    0.95006   1.00
C4       0.16277    0.84206    0.93052   1.00
C5       0.21434    0.82338    0.92449   1.00
H2       0.25919    0.86154    0.92663   1.00
H2       0.20872    0.81110    0.91044   1.00
H2       0.20842    0.78535    0.93253   1.00
C4       0.08409    0.84000    0.95579   1.00
C5       0.05430    0.82763    0.97723   1.00
H2       0.01842    0.78091    0.97847   1.00
H2       0.03622    0.85724    0.97974   1.00
H2       0.08940    0.83655    0.98689   1.00
C3       0.13623    0.86815    0.91650   1.00
H1       0.15272    0.87591    0.90325   1.00
C3       0.06043    0.86874    0.94054   1.00
H1       0.02595    0.87786    0.94387   1.00
C2       0.08630    0.88270    0.92155   1.00
C2       0.22150    0.46377    0.49499   1.00
C3       0.24775    0.42376    0.49154   1.00
H1       0.28572    0.43094    0.49895   1.00
C3       0.16712    0.45359    0.48368   1.00
H1       0.14858    0.48167    0.48563   1.00
C4       0.22102    0.37222    0.47740   1.00
C5       0.25122    0.32660    0.47337   1.00
H2       0.28713    0.34785    0.46352   1.00
H2       0.26930    0.31980    0.48574   1.00
H2       0.21640    0.28342    0.46829   1.00
C4       0.13871    0.40262    0.46926   1.00
C5       0.07759    0.39251    0.45602   1.00
H2       0.03578    0.35854    0.46207   1.00
H2       0.07761    0.43477    0.45506   1.00
H2       0.08169    0.37787    0.44273   1.00
C6       0.16639    0.36192    0.46570   1.00
C6       0.13692    0.30781    0.45006   1.00
C4       0.16277    0.32071    0.43052   1.00
C5       0.21434    0.39096    0.42449   1.00
H2       0.25919    0.39765    0.42663   1.00
H2       0.20872    0.39762    0.41044   1.00
H2       0.20842    0.42307    0.43253   1.00
C4       0.08409    0.24409    0.45579   1.00
C5       0.05430    0.22667    0.47723   1.00
H2       0.01842    0.23751    0.47847   1.00
H2       0.03622    0.17898    0.47974   1.00
H2       0.08940    0.25285    0.48689   1.00
C3       0.13623    0.26808    0.41650   1.00
H1       0.15272    0.27681    0.40325   1.00
C3       0.06043    0.19169    0.44054   1.00
H1       0.02595    0.14809    0.44387   1.00
C2       0.08630    0.20360    0.42155   1.00
C2       0.53623    0.75773    0.49499   1.00
C3       0.57624    0.82399    0.49154   1.00
H1       0.56906    0.85478    0.49895   1.00
C3       0.54641    0.71353    0.48368   1.00
H1       0.51833    0.66691    0.48563   1.00
C4       0.62778    0.84880    0.47740   1.00
C5       0.67340    0.92462    0.47337   1.00
H2       0.65215    0.93928    0.46352   1.00
H2       0.68020    0.94950    0.48574   1.00
H2       0.71658    0.93298    0.46829   1.00
C4       0.59738    0.73609    0.46926   1.00
C5       0.60749    0.68508    0.45602   1.00
H2       0.64146    0.67724    0.46207   1.00
H2       0.56523    0.64284    0.45506   1.00
H2       0.62213    0.70382    0.44273   1.00
C6       0.63808    0.80447    0.46570   1.00
C6       0.69219    0.82911    0.45006   1.00
C4       0.67929    0.84206    0.43052   1.00
C5       0.60904    0.82338    0.42449   1.00
H2       0.60235    0.86154    0.42663   1.00
H2       0.60238    0.81110    0.41044   1.00
H2       0.57693    0.78535    0.43253   1.00
C4       0.75591    0.84000    0.45579   1.00
C5       0.77333    0.82763    0.47723   1.00
H2       0.76249    0.78091    0.47847   1.00
H2       0.82102    0.85724    0.47974   1.00
H2       0.74715    0.83655    0.48689   1.00
C3       0.73192    0.86815    0.41650   1.00
H1       0.72319    0.87591    0.40325   1.00
C3       0.80831    0.86874    0.44054   1.00
H1       0.85191    0.87786    0.44387   1.00
C2       0.79640    0.88270    0.42155   1.00
C2       0.24227    -0.22150   0.49499   1.00
C3       0.17601    -0.24775   0.49154   1.00
H1       0.14522    -0.28572   0.49895   1.00
C3       0.28647    -0.16712   0.48368   1.00
H1       0.33309    -0.14858   0.48563   1.00
C4       0.15120    -0.22102   0.47740   1.00
C5       0.07538    -0.25122   0.47337   1.00
H2       0.06072    -0.28713   0.46352   1.00
H2       0.05050    -0.26930   0.48574   1.00
H2       0.06702    -0.21640   0.46829   1.00
C4       0.26391    -0.13871   0.46926   1.00
C5       0.31492    -0.07759   0.45602   1.00
H2       0.32276    -0.03578   0.46207   1.00
H2       0.35716    -0.07761   0.45506   1.00
H2       0.29618    -0.08169   0.44273   1.00
C6       0.19553    -0.16639   0.46570   1.00
C6       0.17089    -0.13692   0.45006   1.00
C4       0.15794    -0.16277   0.43052   1.00
C5       0.17662    -0.21434   0.42449   1.00
H2       0.13846    -0.25919   0.42663   1.00
H2       0.18890    -0.20872   0.41044   1.00
H2       0.21465    -0.20842   0.43253   1.00
C4       0.16000    -0.08409   0.45579   1.00
C5       0.17237    -0.05430   0.47723   1.00
H2       0.21909    -0.01842   0.47847   1.00
H2       0.14276    -0.03622   0.47974   1.00
H2       0.16345    -0.08940   0.48689   1.00
C3       0.13185    -0.13623   0.41650   1.00
H1       0.12409    -0.15272   0.40325   1.00
C3       0.13126    -0.06043   0.44054   1.00
H1       0.12214    -0.02595   0.44387   1.00
C2       0.11730    -0.08630   0.42155   1.00
C2       0.46377    0.22150    0.00501   1.00
C3       0.42376    0.24775    0.00846   1.00
H1       0.43094    0.28572    0.00105   1.00
C3       0.45359    0.16712    0.01632   1.00
H1       0.48167    0.14858    0.01437   1.00
C4       0.37222    0.22102    0.02260   1.00
C5       0.32660    0.25122    0.02663   1.00
H2       0.34785    0.28713    0.03648   1.00
H2       0.31980    0.26930    0.01426   1.00
H2       0.28342    0.21640    0.03171   1.00
C4       0.40262    0.13871    0.03074   1.00
C5       0.39251    0.07759    0.04398   1.00
H2       0.35854    0.03578    0.03793   1.00
H2       0.43477    0.07761    0.04494   1.00
H2       0.37787    0.08169    0.05727   1.00
C6       0.36192    0.16639    0.03430   1.00
C6       0.30781    0.13692    0.04994   1.00
C4       0.32071    0.16277    0.06948   1.00
C5       0.39096    0.21434    0.07551   1.00
H2       0.39765    0.25919    0.07337   1.00
H2       0.39762    0.20872    0.08956   1.00
H2       0.42307    0.20842    0.06747   1.00
C4       0.24409    0.08409    0.04421   1.00
C5       0.22667    0.05430    0.02277   1.00
H2       0.23751    0.01842    0.02153   1.00
H2       0.17898    0.03622    0.02026   1.00
H2       0.25285    0.08940    0.01311   1.00
C3       0.26808    0.13623    0.08350   1.00
H1       0.27681    0.15272    0.09675   1.00
C3       0.19169    0.06043    0.05946   1.00
H1       0.14809    0.02595    0.05613   1.00
C2       0.20360    0.08630    0.07845   1.00
C2       0.75773    0.53623    0.00501   1.00
C3       0.82399    0.57624    0.00846   1.00
H1       0.85478    0.56906    0.00105   1.00
C3       0.71353    0.54641    0.01632   1.00
H1       0.66691    0.51833    0.01437   1.00
C4       0.84880    0.62778    0.02260   1.00
C5       0.92462    0.67340    0.02663   1.00
H2       0.93928    0.65215    0.03648   1.00
H2       0.94950    0.68020    0.01426   1.00
H2       0.93298    0.71658    0.03171   1.00
C4       0.73609    0.59738    0.03074   1.00
C5       0.68508    0.60749    0.04398   1.00
H2       0.67724    0.64146    0.03793   1.00
H2       0.64284    0.56523    0.04494   1.00
H2       0.70382    0.62213    0.05727   1.00
C6       0.80447    0.63808    0.03430   1.00
C6       0.82911    0.69219    0.04994   1.00
C4       0.84206    0.67929    0.06948   1.00
C5       0.82338    0.60904    0.07551   1.00
H2       0.86154    0.60235    0.07337   1.00
H2       0.81110    0.60238    0.08956   1.00
H2       0.78535    0.57693    0.06747   1.00
C4       0.84000    0.75591    0.04421   1.00
C5       0.82763    0.77333    0.02277   1.00
H2       0.78091    0.76249    0.02153   1.00
H2       0.85724    0.82102    0.02026   1.00
H2       0.83655    0.74715    0.01311   1.00
C3       0.86815    0.73192    0.08350   1.00
H1       0.87591    0.72319    0.09675   1.00
C3       0.86874    0.80831    0.05946   1.00
H1       0.87786    0.85191    0.05613   1.00
C2       0.88270    0.79640    0.07845   1.00
C2       -0.22150   0.24227    0.00501   1.00
C3       -0.24775   0.17601    0.00846   1.00
H1       -0.28572   0.14522    0.00105   1.00
C3       -0.16712   0.28647    0.01632   1.00
H1       -0.14858   0.33309    0.01437   1.00
C4       -0.22102   0.15120    0.02260   1.00
C5       -0.25122   0.07538    0.02663   1.00
H2       -0.28713   0.06072    0.03648   1.00
H2       -0.26930   0.05050    0.01426   1.00
H2       -0.21640   0.06702    0.03171   1.00
C4       -0.13871   0.26391    0.03074   1.00
C5       -0.07759   0.31492    0.04398   1.00
H2       -0.03578   0.32276    0.03793   1.00
H2       -0.07761   0.35716    0.04494   1.00
H2       -0.08169   0.29618    0.05727   1.00
C6       -0.16639   0.19553    0.03430   1.00
C6       -0.13692   0.17089    0.04994   1.00
C4       -0.16277   0.15794    0.06948   1.00
C5       -0.21434   0.17662    0.07551   1.00
H2       -0.25919   0.13846    0.07337   1.00
H2       -0.20872   0.18890    0.08956   1.00
H2       -0.20842   0.21465    0.06747   1.00
C4       -0.08409   0.16000    0.04421   1.00
C5       -0.05430   0.17237    0.02277   1.00
H2       -0.01842   0.21909    0.02153   1.00
H2       -0.03622   0.14276    0.02026   1.00
H2       -0.08940   0.16345    0.01311   1.00
C3       -0.13623   0.13185    0.08350   1.00
H1       -0.15272   0.12409    0.09675   1.00
C3       -0.06043   0.13126    0.05946   1.00
H1       -0.02595   0.12214    0.05613   1.00
C2       -0.08630   0.11730    0.07845   1.00
C2       0.44517    0.86956    0.83834   1.00
C3       0.41892    0.90957    0.84179   1.00
H1       0.38095    0.90239    0.83438   1.00
C3       0.49955    0.87974    0.84965   1.00
H1       0.51809    0.85166    0.84770   1.00
C4       0.44565    0.96111    0.85593   1.00
C5       0.41545    0.00673    0.85996   1.00
H2       0.37954    0.98548    0.86981   1.00
H2       0.39737    0.01353    0.84759   1.00
H2       0.45027    0.04991    0.86504   1.00
C4       0.52796    0.93071    0.86407   1.00
C5       0.58908    0.94082    0.87731   1.00
H2       0.63089    0.97479    0.87126   1.00
H2       0.58906    0.89856    0.87827   1.00
H2       0.58498    0.95546    0.89060   1.00
C6       0.50028    0.97141    0.86763   1.00
C6       0.52975    0.02552    0.88327   1.00
C4       0.50390    0.01262    0.90281   1.00
C5       0.45233    0.94237    0.90884   1.00
H2       0.40748    0.93568    0.90670   1.00
H2       0.45795    0.93571    0.92289   1.00
H2       0.45825    0.91026    0.90080   1.00
C4       0.58258    0.08924    0.87754   1.00
C5       0.61237    0.10666    0.85610   1.00
H2       0.64825    0.09582    0.85486   1.00
H2       0.63045    0.15435    0.85359   1.00
H2       0.57727    0.08048    0.84644   1.00
C3       0.53044    0.06525    0.91683   1.00
H1       0.51395    0.05652    0.93008   1.00
C3       0.60624    0.14164    0.89279   1.00
H1       0.64072    0.18524    0.88946   1.00
C2       0.58037    0.12973    0.91178   1.00
C2       0.13044    0.57560    0.83834   1.00
C3       0.09043    0.50934    0.84179   1.00
H1       0.09761    0.47855    0.83438   1.00
C3       0.12026    0.61980    0.84965   1.00
H1       0.14834    0.66642    0.84770   1.00
C4       0.03889    0.48453    0.85593   1.00
C5       0.99327    0.40871    0.85996   1.00
H2       0.01452    0.39405    0.86981   1.00
H2       0.98647    0.38383    0.84759   1.00
H2       0.95009    0.40035    0.86504   1.00
C4       0.06929    0.59724    0.86407   1.00
C5       0.05918    0.64825    0.87731   1.00
H2       0.02521    0.65609    0.87126   1.00
H2       0.10144    0.69049    0.87827   1.00
H2       0.04454    0.62951    0.89060   1.00
C6       0.02859    0.52886    0.86763   1.00
C6       0.97448    0.50422    0.88327   1.00
C4       0.98738    0.49127    0.90281   1.00
C5       0.05763    0.50995    0.90884   1.00
H2       0.06432    0.47179    0.90670   1.00
H2       0.06429    0.52223    0.92289   1.00
H2       0.08974    0.54798    0.90080   1.00
C4       0.91076    0.49333    0.87754   1.00
C5       0.89334    0.50570    0.85610   1.00
H2       0.90418    0.55242    0.85486   1.00
H2       0.84565    0.47609    0.85359   1.00
H2       0.91952    0.49678    0.84644   1.00
C3       0.93475    0.46518    0.91683   1.00
H1       0.94348    0.45742    0.93008   1.00
C3       0.85836    0.46459    0.89279   1.00
H1       0.81476    0.45547    0.88946   1.00
C2       0.87027    0.45063    0.91178   1.00
C2       0.42440    0.55483    0.83834   1.00
C3       0.49066    0.58108    0.84179   1.00
H1       0.52145    0.61905    0.83438   1.00
C3       0.38020    0.50045    0.84965   1.00
H1       0.33358    0.48191    0.84770   1.00
C4       0.51547    0.55435    0.85593   1.00
C5       0.59129    0.58455    0.85996   1.00
H2       0.60595    0.62046    0.86981   1.00
H2       0.61617    0.60263    0.84759   1.00
H2       0.59965    0.54973    0.86504   1.00
C4       0.40276    0.47204    0.86407   1.00
C5       0.35175    0.41092    0.87731   1.00
H2       0.34391    0.36911    0.87126   1.00
H2       0.30951    0.41094    0.87827   1.00
H2       0.37049    0.41502    0.89060   1.00
C6       0.47114    0.49972    0.86763   1.00
C6       0.49578    0.47025    0.88327   1.00
C4       0.50873    0.49610    0.90281   1.00
C5       0.49005    0.54767    0.90884   1.00
H2       0.52821    0.59252    0.90670   1.00
H2       0.47777    0.54205    0.92289   1.00
H2       0.45202    0.54175    0.90080   1.00
C4       0.50667    0.41742    0.87754   1.00
C5       0.49430    0.38763    0.85610   1.00
H2       0.44758    0.35175    0.85486   1.00
H2       0.52391    0.36955    0.85359   1.00
H2       0.50322    0.42273    0.84644   1.00
C3       0.53482    0.46956    0.91683   1.00
H1       0.54258    0.48605    0.93008   1.00
C3       0.53541    0.39376    0.89279   1.00
H1       0.54453    0.35928    0.88946   1.00
C2       0.54937    0.41963    0.91178   1.00
C2       0.20290    0.11183    0.32832   1.00
C3       0.24291    0.08558    0.32487   1.00
H1       0.23573    0.04761    0.33228   1.00
C3       0.21308    0.16621    0.31701   1.00
H1       0.18500    0.18475    0.31896   1.00
C4       0.29445    0.11231    0.31073   1.00
C5       0.34007    0.08211    0.30670   1.00
H2       0.31882    0.04620    0.29685   1.00
H2       0.34687    0.06403    0.31907   1.00
H2       0.38325    0.11693    0.30162   1.00
C4       0.26405    0.19462    0.30259   1.00
C5       0.27416    0.25574    0.28935   1.00
H2       0.30813    0.29755    0.29540   1.00
H2       0.23190    0.25572    0.28839   1.00
H2       0.28880    0.25164    0.27606   1.00
C6       0.30475    0.16694    0.29903   1.00
C6       0.35886    0.19641    0.28339   1.00
C4       0.34596    0.17056    0.26385   1.00
C5       0.27571    0.11899    0.25782   1.00
H2       0.26902    0.07414    0.25996   1.00
H2       0.26905    0.12461    0.24377   1.00
H2       0.24360    0.12491    0.26586   1.00
C4       0.42258    0.24924    0.28912   1.00
C5       0.44000    0.27903    0.31056   1.00
H2       0.42916    0.31491    0.31180   1.00
H2       0.48769    0.29711    0.31307   1.00
H2       0.41382    0.24393    0.32022   1.00
C3       0.39859    0.19710    0.24983   1.00
H1       0.38986    0.18061    0.23658   1.00
C3       0.47498    0.27290    0.27387   1.00
H1       0.51858    0.30738    0.27720   1.00
C2       0.46307    0.24703    0.25488   1.00
C2       0.90894    0.79710    0.32832   1.00
C3       0.84268    0.75709    0.32487   1.00
H1       0.81189    0.76427    0.33228   1.00
C3       0.95314    0.78692    0.31701   1.00
H1       0.99976    0.81500    0.31896   1.00
C4       0.81787    0.70555    0.31073   1.00
C5       0.74205    0.65993    0.30670   1.00
H2       0.72739    0.68118    0.29685   1.00
H2       0.71717    0.65313    0.31907   1.00
H2       0.73369    0.61675    0.30162   1.00
C4       0.93058    0.73595    0.30259   1.00
C5       0.98159    0.72584    0.28935   1.00
H2       0.98943    0.69187    0.29540   1.00
H2       0.02383    0.76810    0.28839   1.00
H2       0.96285    0.71120    0.27606   1.00
C6       0.86220    0.69525    0.29903   1.00
C6       0.83756    0.64114    0.28339   1.00
C4       0.82461    0.65404    0.26385   1.00
C5       0.84329    0.72429    0.25782   1.00
H2       0.80513    0.73098    0.25996   1.00
H2       0.85557    0.73095    0.24377   1.00
H2       0.88132    0.75640    0.26586   1.00
C4       0.82667    0.57742    0.28912   1.00
C5       0.83904    0.56000    0.31056   1.00
H2       0.88576    0.57084    0.31180   1.00
H2       0.80943    0.51231    0.31307   1.00
H2       0.83012    0.58618    0.32022   1.00
C3       0.79852    0.60141    0.24983   1.00
H1       0.79076    0.61014    0.23658   1.00
C3       0.79793    0.52502    0.27387   1.00
H1       0.78881    0.48142    0.27720   1.00
C2       0.78397    0.53693    0.25488   1.00
C2       0.88817    0.09106    0.32832   1.00
C3       0.91442    0.15732    0.32487   1.00
H1       0.95239    0.18811    0.33228   1.00
C3       0.83379    0.04686    0.31701   1.00
H1       0.81525    0.00024    0.31896   1.00
C4       0.88769    0.18213    0.31073   1.00
C5       0.91789    0.25795    0.30670   1.00
H2       0.95380    0.27261    0.29685   1.00
H2       0.93597    0.28283    0.31907   1.00
H2       0.88307    0.26631    0.30162   1.00
C4       0.80538    0.06942    0.30259   1.00
C5       0.74426    0.01841    0.28935   1.00
H2       0.70245    0.01057    0.29540   1.00
H2       0.74428    0.97617    0.28839   1.00
H2       0.74836    0.03715    0.27606   1.00
C6       0.83306    0.13780    0.29903   1.00
C6       0.80359    0.16244    0.28339   1.00
C4       0.82944    0.17539    0.26385   1.00
C5       0.88101    0.15671    0.25782   1.00
H2       0.92586    0.19487    0.25996   1.00
H2       0.87539    0.14443    0.24377   1.00
H2       0.87509    0.11868    0.26586   1.00
C4       0.75076    0.17333    0.28912   1.00
C5       0.72097    0.16096    0.31056   1.00
H2       0.68509    0.11424    0.31180   1.00
H2       0.70289    0.19057    0.31307   1.00
H2       0.75607    0.16988    0.32022   1.00
C3       0.80290    0.20148    0.24983   1.00
H1       0.81939    0.20924    0.23658   1.00
C3       0.72710    0.20207    0.27387   1.00
H1       0.69262    0.21119    0.27720   1.00
C2       0.75297    0.21603    0.25488   1.00
C2       0.88817    0.79710    0.82832   1.00
C3       0.91442    0.75709    0.82487   1.00
H1       0.95239    0.76427    0.83228   1.00
C3       0.83379    0.78692    0.81701   1.00
H1       0.81525    0.81500    0.81896   1.00
C4       0.88769    0.70555    0.81073   1.00
C5       0.91789    0.65993    0.80670   1.00
H2       0.95380    0.68118    0.79685   1.00
H2       0.93597    0.65313    0.81907   1.00
H2       0.88307    0.61675    0.80162   1.00
C4       0.80538    0.73595    0.80259   1.00
C5       0.74426    0.72584    0.78935   1.00
H2       0.70245    0.69187    0.79540   1.00
H2       0.74428    0.76810    0.78839   1.00
H2       0.74836    0.71120    0.77606   1.00
C6       0.83306    0.69525    0.79903   1.00
C6       0.80359    0.64114    0.78339   1.00
C4       0.82944    0.65404    0.76385   1.00
C5       0.88101    0.72429    0.75782   1.00
H2       0.92586    0.73098    0.75996   1.00
H2       0.87539    0.73095    0.74377   1.00
H2       0.87509    0.75640    0.76586   1.00
C4       0.75076    0.57742    0.78912   1.00
C5       0.72097    0.56000    0.81056   1.00
H2       0.68509    0.57084    0.81180   1.00
H2       0.70289    0.51231    0.81307   1.00
H2       0.75607    0.58618    0.82022   1.00
C3       0.80290    0.60141    0.74983   1.00
H1       0.81939    0.61014    0.73658   1.00
C3       0.72710    0.52502    0.77387   1.00
H1       0.69262    0.48142    0.77720   1.00
C2       0.75297    0.53693    0.75488   1.00
C2       0.20290    0.09106    0.82832   1.00
C3       0.24291    0.15732    0.82487   1.00
H1       0.23573    0.18811    0.83228   1.00
C3       0.21308    0.04686    0.81701   1.00
H1       0.18500    0.00024    0.81896   1.00
C4       0.29445    0.18213    0.81073   1.00
C5       0.34007    0.25795    0.80670   1.00
H2       0.31882    0.27261    0.79685   1.00
H2       0.34687    0.28283    0.81907   1.00
H2       0.38325    0.26631    0.80162   1.00
C4       0.26405    0.06942    0.80259   1.00
C5       0.27416    0.01841    0.78935   1.00
H2       0.30813    0.01057    0.79540   1.00
H2       0.23190    0.97617    0.78839   1.00
H2       0.28880    0.03715    0.77606   1.00
C6       0.30475    0.13780    0.79903   1.00
C6       0.35886    0.16244    0.78339   1.00
C4       0.34596    0.17539    0.76385   1.00
C5       0.27571    0.15671    0.75782   1.00
H2       0.26902    0.19487    0.75996   1.00
H2       0.26905    0.14443    0.74377   1.00
H2       0.24360    0.11868    0.76586   1.00
C4       0.42258    0.17333    0.78912   1.00
C5       0.44000    0.16096    0.81056   1.00
H2       0.42916    0.11424    0.81180   1.00
H2       0.48769    0.19057    0.81307   1.00
H2       0.41382    0.16988    0.82022   1.00
C3       0.39859    0.20148    0.74983   1.00
H1       0.38986    0.20924    0.73658   1.00
C3       0.47498    0.20207    0.77387   1.00
H1       0.51858    0.21119    0.77720   1.00
C2       0.46307    0.21603    0.75488   1.00
C2       0.90894    0.11183    0.82832   1.00
C3       0.84268    0.08558    0.82487   1.00
H1       0.81189    0.04761    0.83228   1.00
C3       0.95314    0.16621    0.81701   1.00
H1       0.99976    0.18475    0.81896   1.00
C4       0.81787    0.11231    0.81073   1.00
C5       0.74205    0.08211    0.80670   1.00
H2       0.72739    0.04620    0.79685   1.00
H2       0.71717    0.06403    0.81907   1.00
H2       0.73369    0.11693    0.80162   1.00
C4       0.93058    0.19462    0.80259   1.00
C5       0.98159    0.25574    0.78935   1.00
H2       0.98943    0.29755    0.79540   1.00
H2       0.02383    0.25572    0.78839   1.00
H2       0.96285    0.25164    0.77606   1.00
C6       0.86220    0.16694    0.79903   1.00
C6       0.83756    0.19641    0.78339   1.00
C4       0.82461    0.17056    0.76385   1.00
C5       0.84329    0.11899    0.75782   1.00
H2       0.80513    0.07414    0.75996   1.00
H2       0.85557    0.12461    0.74377   1.00
H2       0.88132    0.12491    0.76586   1.00
C4       0.82667    0.24924    0.78912   1.00
C5       0.83904    0.27903    0.81056   1.00
H2       0.88576    0.31491    0.81180   1.00
H2       0.80943    0.29711    0.81307   1.00
H2       0.83012    0.24393    0.82022   1.00
C3       0.79852    0.19710    0.74983   1.00
H1       0.79076    0.18061    0.73658   1.00
C3       0.79793    0.27290    0.77387   1.00
H1       0.78881    0.30738    0.77720   1.00
C2       0.78397    0.24703    0.75488   1.00
C2       0.13044    0.55483    0.33834   1.00
C3       0.09043    0.58108    0.34179   1.00
H1       0.09761    0.61905    0.33438   1.00
C3       0.12026    0.50045    0.34965   1.00
H1       0.14834    0.48191    0.34770   1.00
C4       0.03889    0.55435    0.35593   1.00
C5       0.99327    0.58455    0.35996   1.00
H2       0.01452    0.62046    0.36981   1.00
H2       0.98647    0.60263    0.34759   1.00
H2       0.95009    0.54973    0.36504   1.00
C4       0.06929    0.47204    0.36407   1.00
C5       0.05918    0.41092    0.37731   1.00
H2       0.02521    0.36911    0.37126   1.00
H2       0.10144    0.41094    0.37827   1.00
H2       0.04454    0.41502    0.39060   1.00
C6       0.02859    0.49972    0.36763   1.00
C6       0.97448    0.47025    0.38327   1.00
C4       0.98738    0.49610    0.40281   1.00
C5       0.05763    0.54767    0.40884   1.00
H2       0.06432    0.59252    0.40670   1.00
H2       0.06429    0.54205    0.42289   1.00
H2       0.08974    0.54175    0.40080   1.00
C4       0.91076    0.41742    0.37754   1.00
C5       0.89334    0.38763    0.35610   1.00
H2       0.90418    0.35175    0.35486   1.00
H2       0.84565    0.36955    0.35359   1.00
H2       0.91952    0.42273    0.34644   1.00
C3       0.93475    0.46956    0.41683   1.00
H1       0.94348    0.48605    0.43008   1.00
C3       0.85836    0.39376    0.39279   1.00
H1       0.81476    0.35928    0.38946   1.00
C2       0.87027    0.41963    0.41178   1.00
C2       0.42440    0.86956    0.33834   1.00
C3       0.49066    0.90957    0.34179   1.00
H1       0.52145    0.90239    0.33438   1.00
C3       0.38020    0.87974    0.34965   1.00
H1       0.33358    0.85166    0.34770   1.00
C4       0.51547    0.96111    0.35593   1.00
C5       0.59129    0.00673    0.35996   1.00
H2       0.60595    0.98548    0.36981   1.00
H2       0.61617    0.01353    0.34759   1.00
H2       0.59965    0.04991    0.36504   1.00
C4       0.40276    0.93071    0.36407   1.00
C5       0.35175    0.94082    0.37731   1.00
H2       0.34391    0.97479    0.37126   1.00
H2       0.30951    0.89856    0.37827   1.00
H2       0.37049    0.95546    0.39060   1.00
C6       0.47114    0.97141    0.36763   1.00
C6       0.49578    0.02552    0.38327   1.00
C4       0.50873    0.01262    0.40281   1.00
C5       0.49005    0.94237    0.40884   1.00
H2       0.52821    0.93568    0.40670   1.00
H2       0.47777    0.93571    0.42289   1.00
H2       0.45202    0.91026    0.40080   1.00
C4       0.50667    0.08924    0.37754   1.00
C5       0.49430    0.10666    0.35610   1.00
H2       0.44758    0.09582    0.35486   1.00
H2       0.52391    0.15435    0.35359   1.00
H2       0.50322    0.08048    0.34644   1.00
C3       0.53482    0.06525    0.41683   1.00
H1       0.54258    0.05652    0.43008   1.00
C3       0.53541    0.14164    0.39279   1.00
H1       0.54453    0.18524    0.38946   1.00
C2       0.54937    0.12973    0.41178   1.00
C2       0.44517    0.57560    0.33834   1.00
C3       0.41892    0.50934    0.34179   1.00
H1       0.38095    0.47855    0.33438   1.00
C3       0.49955    0.61980    0.34965   1.00
H1       0.51809    0.66642    0.34770   1.00
C4       0.44565    0.48453    0.35593   1.00
C5       0.41545    0.40871    0.35996   1.00
H2       0.37954    0.39405    0.36981   1.00
H2       0.39737    0.38383    0.34759   1.00
H2       0.45027    0.40035    0.36504   1.00
C4       0.52796    0.59724    0.36407   1.00
C5       0.58908    0.64825    0.37731   1.00
H2       0.63089    0.65609    0.37126   1.00
H2       0.58906    0.69049    0.37827   1.00
H2       0.58498    0.62951    0.39060   1.00
C6       0.50028    0.52886    0.36763   1.00
C6       0.52975    0.50422    0.38327   1.00
C4       0.50390    0.49127    0.40281   1.00
C5       0.45233    0.50995    0.40884   1.00
H2       0.40748    0.47179    0.40670   1.00
H2       0.45795    0.52223    0.42289   1.00
H2       0.45825    0.54798    0.40080   1.00
C4       0.58258    0.49333    0.37754   1.00
C5       0.61237    0.50570    0.35610   1.00
H2       0.64825    0.55242    0.35486   1.00
H2       0.63045    0.47609    0.35359   1.00
H2       0.57727    0.49678    0.34644   1.00
C3       0.53044    0.46518    0.41683   1.00
H1       0.51395    0.45742    0.43008   1.00
C3       0.60624    0.46459    0.39279   1.00
H1       0.64072    0.45547    0.38946   1.00
C2       0.58037    0.45063    0.41178   1.00
C2       0.11183    0.20290    0.17168   1.00
C3       0.08558    0.24291    0.17513   1.00
H1       0.04761    0.23573    0.16772   1.00
C3       0.16621    0.21308    0.18299   1.00
H1       0.18475    0.18500    0.18104   1.00
C4       0.11231    0.29445    0.18927   1.00
C5       0.08211    0.34007    0.19330   1.00
H2       0.04620    0.31882    0.20315   1.00
H2       0.06403    0.34687    0.18093   1.00
H2       0.11693    0.38325    0.19838   1.00
C4       0.19462    0.26405    0.19741   1.00
C5       0.25574    0.27416    0.21065   1.00
H2       0.29755    0.30813    0.20460   1.00
H2       0.25572    0.23190    0.21161   1.00
H2       0.25164    0.28880    0.22394   1.00
C6       0.16694    0.30475    0.20097   1.00
C6       0.19641    0.35886    0.21661   1.00
C4       0.17056    0.34596    0.23615   1.00
C5       0.11899    0.27571    0.24218   1.00
H2       0.07414    0.26902    0.24004   1.00
H2       0.12461    0.26905    0.25623   1.00
H2       0.12491    0.24360    0.23414   1.00
C4       0.24924    0.42258    0.21088   1.00
C5       0.27903    0.44000    0.18944   1.00
H2       0.31491    0.42916    0.18820   1.00
H2       0.29711    0.48769    0.18693   1.00
H2       0.24393    0.41382    0.17978   1.00
C3       0.19710    0.39859    0.25017   1.00
H1       0.18061    0.38986    0.26342   1.00
C3       0.27290    0.47498    0.22613   1.00
H1       0.30738    0.51858    0.22280   1.00
C2       0.24703    0.46307    0.24512   1.00
C2       0.79710    0.90894    0.17168   1.00
C3       0.75709    0.84268    0.17513   1.00
H1       0.76427    0.81189    0.16772   1.00
C3       0.78692    0.95314    0.18299   1.00
H1       0.81500    0.99976    0.18104   1.00
C4       0.70555    0.81787    0.18927   1.00
C5       0.65993    0.74205    0.19330   1.00
H2       0.68118    0.72739    0.20315   1.00
H2       0.65313    0.71717    0.18093   1.00
H2       0.61675    0.73369    0.19838   1.00
C4       0.73595    0.93058    0.19741   1.00
C5       0.72584    0.98159    0.21065   1.00
H2       0.69187    0.98943    0.20460   1.00
H2       0.76810    0.02383    0.21161   1.00
H2       0.71120    0.96285    0.22394   1.00
C6       0.69525    0.86220    0.20097   1.00
C6       0.64114    0.83756    0.21661   1.00
C4       0.65404    0.82461    0.23615   1.00
C5       0.72429    0.84329    0.24218   1.00
H2       0.73098    0.80513    0.24004   1.00
H2       0.73095    0.85557    0.25623   1.00
H2       0.75640    0.88132    0.23414   1.00
C4       0.57742    0.82667    0.21088   1.00
C5       0.56000    0.83904    0.18944   1.00
H2       0.57084    0.88576    0.18820   1.00
H2       0.51231    0.80943    0.18693   1.00
H2       0.58618    0.83012    0.17978   1.00
C3       0.60141    0.79852    0.25017   1.00
H1       0.61014    0.79076    0.26342   1.00
C3       0.52502    0.79793    0.22613   1.00
H1       0.48142    0.78881    0.22280   1.00
C2       0.53693    0.78397    0.24512   1.00
C2       0.09106    0.88817    0.17168   1.00
C3       0.15732    0.91442    0.17513   1.00
H1       0.18811    0.95239    0.16772   1.00
C3       0.04686    0.83379    0.18299   1.00
H1       0.00024    0.81525    0.18104   1.00
C4       0.18213    0.88769    0.18927   1.00
C5       0.25795    0.91789    0.19330   1.00
H2       0.27261    0.95380    0.20315   1.00
H2       0.28283    0.93597    0.18093   1.00
H2       0.26631    0.88307    0.19838   1.00
C4       0.06942    0.80538    0.19741   1.00
C5       0.01841    0.74426    0.21065   1.00
H2       0.01057    0.70245    0.20460   1.00
H2       0.97617    0.74428    0.21161   1.00
H2       0.03715    0.74836    0.22394   1.00
C6       0.13780    0.83306    0.20097   1.00
C6       0.16244    0.80359    0.21661   1.00
C4       0.17539    0.82944    0.23615   1.00
C5       0.15671    0.88101    0.24218   1.00
H2       0.19487    0.92586    0.24004   1.00
H2       0.14443    0.87539    0.25623   1.00
H2       0.11868    0.87509    0.23414   1.00
C4       0.17333    0.75076    0.21088   1.00
C5       0.16096    0.72097    0.18944   1.00
H2       0.11424    0.68509    0.18820   1.00
H2       0.19057    0.70289    0.18693   1.00
H2       0.16988    0.75607    0.17978   1.00
C3       0.20148    0.80290    0.25017   1.00
H1       0.20924    0.81939    0.26342   1.00
C3       0.20207    0.72710    0.22613   1.00
H1       0.21119    0.69262    0.22280   1.00
C2       0.21603    0.75297    0.24512   1.00
C2       0.86956    0.44517    0.66166   1.00
C3       0.90957    0.41892    0.65821   1.00
H1       0.90239    0.38095    0.66562   1.00
C3       0.87974    0.49955    0.65035   1.00
H1       0.85166    0.51809    0.65230   1.00
C4       0.96111    0.44565    0.64407   1.00
C5       0.00673    0.41545    0.64004   1.00
H2       0.98548    0.37954    0.63019   1.00
H2       0.01353    0.39737    0.65241   1.00
H2       0.04991    0.45027    0.63496   1.00
C4       0.93071    0.52796    0.63593   1.00
C5       0.94082    0.58908    0.62269   1.00
H2       0.97479    0.63089    0.62874   1.00
H2       0.89856    0.58906    0.62173   1.00
H2       0.95546    0.58498    0.60940   1.00
C6       0.97141    0.50028    0.63237   1.00
C6       0.02552    0.52975    0.61673   1.00
C4       0.01262    0.50390    0.59719   1.00
C5       0.94237    0.45233    0.59116   1.00
H2       0.93568    0.40748    0.59330   1.00
H2       0.93571    0.45795    0.57711   1.00
H2       0.91026    0.45825    0.59920   1.00
C4       0.08924    0.58258    0.62246   1.00
C5       0.10666    0.61237    0.64390   1.00
H2       0.09582    0.64825    0.64514   1.00
H2       0.15435    0.63045    0.64641   1.00
H2       0.08048    0.57727    0.65356   1.00
C3       0.06525    0.53044    0.58317   1.00
H1       0.05652    0.51395    0.56992   1.00
C3       0.14164    0.60624    0.60721   1.00
H1       0.18524    0.64072    0.61054   1.00
C2       0.12973    0.58037    0.58822   1.00
C2       0.57560    0.13044    0.66166   1.00
C3       0.50934    0.09043    0.65821   1.00
H1       0.47855    0.09761    0.66562   1.00
C3       0.61980    0.12026    0.65035   1.00
H1       0.66642    0.14834    0.65230   1.00
C4       0.48453    0.03889    0.64407   1.00
C5       0.40871    0.99327    0.64004   1.00
H2       0.39405    0.01452    0.63019   1.00
H2       0.38383    0.98647    0.65241   1.00
H2       0.40035    0.95009    0.63496   1.00
C4       0.59724    0.06929    0.63593   1.00
C5       0.64825    0.05918    0.62269   1.00
H2       0.65609    0.02521    0.62874   1.00
H2       0.69049    0.10144    0.62173   1.00
H2       0.62951    0.04454    0.60940   1.00
C6       0.52886    0.02859    0.63237   1.00
C6       0.50422    0.97448    0.61673   1.00
C4       0.49127    0.98738    0.59719   1.00
C5       0.50995    0.05763    0.59116   1.00
H2       0.47179    0.06432    0.59330   1.00
H2       0.52223    0.06429    0.57711   1.00
H2       0.54798    0.08974    0.59920   1.00
C4       0.49333    0.91076    0.62246   1.00
C5       0.50570    0.89334    0.64390   1.00
H2       0.55242    0.90418    0.64514   1.00
H2       0.47609    0.84565    0.64641   1.00
H2       0.49678    0.91952    0.65356   1.00
C3       0.46518    0.93475    0.58317   1.00
H1       0.45742    0.94348    0.56992   1.00
C3       0.46459    0.85836    0.60721   1.00
H1       0.45547    0.81476    0.61054   1.00
C2       0.45063    0.87027    0.58822   1.00
C2       0.55483    0.42440    0.66166   1.00
C3       0.58108    0.49066    0.65821   1.00
H1       0.61905    0.52145    0.66562   1.00
C3       0.50045    0.38020    0.65035   1.00
H1       0.48191    0.33358    0.65230   1.00
C4       0.55435    0.51547    0.64407   1.00
C5       0.58455    0.59129    0.64004   1.00
H2       0.62046    0.60595    0.63019   1.00
H2       0.60263    0.61617    0.65241   1.00
H2       0.54973    0.59965    0.63496   1.00
C4       0.47204    0.40276    0.63593   1.00
C5       0.41092    0.35175    0.62269   1.00
H2       0.36911    0.34391    0.62874   1.00
H2       0.41094    0.30951    0.62173   1.00
H2       0.41502    0.37049    0.60940   1.00
C6       0.49972    0.47114    0.63237   1.00
C6       0.47025    0.49578    0.61673   1.00
C4       0.49610    0.50873    0.59719   1.00
C5       0.54767    0.49005    0.59116   1.00
H2       0.59252    0.52821    0.59330   1.00
H2       0.54205    0.47777    0.57711   1.00
H2       0.54175    0.45202    0.59920   1.00
C4       0.41742    0.50667    0.62246   1.00
C5       0.38763    0.49430    0.64390   1.00
H2       0.35175    0.44758    0.64514   1.00
H2       0.36955    0.52391    0.64641   1.00
H2       0.42273    0.50322    0.65356   1.00
C3       0.46956    0.53482    0.58317   1.00
H1       0.48605    0.54258    0.56992   1.00
C3       0.39376    0.53541    0.60721   1.00
H1       0.35928    0.54453    0.61054   1.00
C2       0.41963    0.54937    0.58822   1.00
C2       0.55483    0.13044    0.16166   1.00
C3       0.58108    0.09043    0.15821   1.00
H1       0.61905    0.09761    0.16562   1.00
C3       0.50045    0.12026    0.15035   1.00
H1       0.48191    0.14834    0.15230   1.00
C4       0.55435    0.03889    0.14407   1.00
C5       0.58455    0.99327    0.14004   1.00
H2       0.62046    0.01452    0.13019   1.00
H2       0.60263    0.98647    0.15241   1.00
H2       0.54973    0.95009    0.13496   1.00
C4       0.47204    0.06929    0.13593   1.00
C5       0.41092    0.05918    0.12269   1.00
H2       0.36911    0.02521    0.12874   1.00
H2       0.41094    0.10144    0.12173   1.00
H2       0.41502    0.04454    0.10940   1.00
C6       0.49972    0.02859    0.13237   1.00
C6       0.47025    0.97448    0.11673   1.00
C4       0.49610    0.98738    0.09719   1.00
C5       0.54767    0.05763    0.09116   1.00
H2       0.59252    0.06432    0.09330   1.00
H2       0.54205    0.06429    0.07711   1.00
H2       0.54175    0.08974    0.09920   1.00
C4       0.41742    0.91076    0.12246   1.00
C5       0.38763    0.89334    0.14390   1.00
H2       0.35175    0.90418    0.14514   1.00
H2       0.36955    0.84565    0.14641   1.00
H2       0.42273    0.91952    0.15356   1.00
C3       0.46956    0.93475    0.08317   1.00
H1       0.48605    0.94348    0.06992   1.00
C3       0.39376    0.85836    0.10721   1.00
H1       0.35928    0.81476    0.11054   1.00
C2       0.41963    0.87027    0.08822   1.00
C2       0.86956    0.42440    0.16166   1.00
C3       0.90957    0.49066    0.15821   1.00
H1       0.90239    0.52145    0.16562   1.00
C3       0.87974    0.38020    0.15035   1.00
H1       0.85166    0.33358    0.15230   1.00
C4       0.96111    0.51547    0.14407   1.00
C5       0.00673    0.59129    0.14004   1.00
H2       0.98548    0.60595    0.13019   1.00
H2       0.01353    0.61617    0.15241   1.00
H2       0.04991    0.59965    0.13496   1.00
C4       0.93071    0.40276    0.13593   1.00
C5       0.94082    0.35175    0.12269   1.00
H2       0.97479    0.34391    0.12874   1.00
H2       0.89856    0.30951    0.12173   1.00
H2       0.95546    0.37049    0.10940   1.00
C6       0.97141    0.47114    0.13237   1.00
C6       0.02552    0.49578    0.11673   1.00
C4       0.01262    0.50873    0.09719   1.00
C5       0.94237    0.49005    0.09116   1.00
H2       0.93568    0.52821    0.09330   1.00
H2       0.93571    0.47777    0.07711   1.00
H2       0.91026    0.45202    0.09920   1.00
C4       0.08924    0.50667    0.12246   1.00
C5       0.10666    0.49430    0.14390   1.00
H2       0.09582    0.44758    0.14514   1.00
H2       0.15435    0.52391    0.14641   1.00
H2       0.08048    0.50322    0.15356   1.00
C3       0.06525    0.53482    0.08317   1.00
H1       0.05652    0.54258    0.06992   1.00
C3       0.14164    0.53541    0.10721   1.00
H1       0.18524    0.54453    0.11054   1.00
C2       0.12973    0.54937    0.08822   1.00
C2       0.57560    0.44517    0.16166   1.00
C3       0.50934    0.41892    0.15821   1.00
H1       0.47855    0.38095    0.16562   1.00
C3       0.61980    0.49955    0.15035   1.00
H1       0.66642    0.51809    0.15230   1.00
C4       0.48453    0.44565    0.14407   1.00
C5       0.40871    0.41545    0.14004   1.00
H2       0.39405    0.37954    0.13019   1.00
H2       0.38383    0.39737    0.15241   1.00
H2       0.40035    0.45027    0.13496   1.00
C4       0.59724    0.52796    0.13593   1.00
C5       0.64825    0.58908    0.12269   1.00
H2       0.65609    0.63089    0.12874   1.00
H2       0.69049    0.58906    0.12173   1.00
H2       0.62951    0.58498    0.10940   1.00
C6       0.52886    0.50028    0.13237   1.00
C6       0.50422    0.52975    0.11673   1.00
C4       0.49127    0.50390    0.09719   1.00
C5       0.50995    0.45233    0.09116   1.00
H2       0.47179    0.40748    0.09330   1.00
H2       0.52223    0.45795    0.07711   1.00
H2       0.54798    0.45825    0.09920   1.00
C4       0.49333    0.58258    0.12246   1.00
C5       0.50570    0.61237    0.14390   1.00
H2       0.55242    0.64825    0.14514   1.00
H2       0.47609    0.63045    0.14641   1.00
H2       0.49678    0.57727    0.15356   1.00
C3       0.46518    0.53044    0.08317   1.00
H1       0.45742    0.51395    0.06992   1.00
C3       0.46459    0.60624    0.10721   1.00
H1       0.45547    0.64072    0.11054   1.00
C2       0.45063    0.58037    0.08822   1.00
C2       0.79710    0.88817    0.67168   1.00
C3       0.75709    0.91442    0.67513   1.00
H1       0.76427    0.95239    0.66772   1.00
C3       0.78692    0.83379    0.68299   1.00
H1       0.81500    0.81525    0.68104   1.00
C4       0.70555    0.88769    0.68927   1.00
C5       0.65993    0.91789    0.69330   1.00
H2       0.68118    0.95380    0.70315   1.00
H2       0.65313    0.93597    0.68093   1.00
H2       0.61675    0.88307    0.69838   1.00
C4       0.73595    0.80538    0.69741   1.00
C5       0.72584    0.74426    0.71065   1.00
H2       0.69187    0.70245    0.70460   1.00
H2       0.76810    0.74428    0.71161   1.00
H2       0.71120    0.74836    0.72394   1.00
C6       0.69525    0.83306    0.70097   1.00
C6       0.64114    0.80359    0.71661   1.00
C4       0.65404    0.82944    0.73615   1.00
C5       0.72429    0.88101    0.74218   1.00
H2       0.73098    0.92586    0.74004   1.00
H2       0.73095    0.87539    0.75623   1.00
H2       0.75640    0.87509    0.73414   1.00
C4       0.57742    0.75076    0.71088   1.00
C5       0.56000    0.72097    0.68944   1.00
H2       0.57084    0.68509    0.68820   1.00
H2       0.51231    0.70289    0.68693   1.00
H2       0.58618    0.75607    0.67978   1.00
C3       0.60141    0.80290    0.75017   1.00
H1       0.61014    0.81939    0.76342   1.00
C3       0.52502    0.72710    0.72613   1.00
H1       0.48142    0.69262    0.72280   1.00
C2       0.53693    0.75297    0.74512   1.00
C2       0.09106    0.20290    0.67168   1.00
C3       0.15732    0.24291    0.67513   1.00
H1       0.18811    0.23573    0.66772   1.00
C3       0.04686    0.21308    0.68299   1.00
H1       0.00024    0.18500    0.68104   1.00
C4       0.18213    0.29445    0.68927   1.00
C5       0.25795    0.34007    0.69330   1.00
H2       0.27261    0.31882    0.70315   1.00
H2       0.28283    0.34687    0.68093   1.00
H2       0.26631    0.38325    0.69838   1.00
C4       0.06942    0.26405    0.69741   1.00
C5       0.01841    0.27416    0.71065   1.00
H2       0.01057    0.30813    0.70460   1.00
H2       0.97617    0.23190    0.71161   1.00
H2       0.03715    0.28880    0.72394   1.00
C6       0.13780    0.30475    0.70097   1.00
C6       0.16244    0.35886    0.71661   1.00
C4       0.17539    0.34596    0.73615   1.00
C5       0.15671    0.27571    0.74218   1.00
H2       0.19487    0.26902    0.74004   1.00
H2       0.14443    0.26905    0.75623   1.00
H2       0.11868    0.24360    0.73414   1.00
C4       0.17333    0.42258    0.71088   1.00
C5       0.16096    0.44000    0.68944   1.00
H2       0.11424    0.42916    0.68820   1.00
H2       0.19057    0.48769    0.68693   1.00
H2       0.16988    0.41382    0.67978   1.00
C3       0.20148    0.39859    0.75017   1.00
H1       0.20924    0.38986    0.76342   1.00
C3       0.20207    0.47498    0.72613   1.00
H1       0.21119    0.51858    0.72280   1.00
C2       0.21603    0.46307    0.74512   1.00
C2       0.11183    0.90894    0.67168   1.00
C3       0.08558    0.84268    0.67513   1.00
H1       0.04761    0.81189    0.66772   1.00
C3       0.16621    0.95314    0.68299   1.00
H1       0.18475    0.99976    0.68104   1.00
C4       0.11231    0.81787    0.68927   1.00
C5       0.08211    0.74205    0.69330   1.00
H2       0.04620    0.72739    0.70315   1.00
H2       0.06403    0.71717    0.68093   1.00
H2       0.11693    0.73369    0.69838   1.00
C4       0.19462    0.93058    0.69741   1.00
C5       0.25574    0.98159    0.71065   1.00
H2       0.29755    0.98943    0.70460   1.00
H2       0.25572    0.02383    0.71161   1.00
H2       0.25164    0.96285    0.72394   1.00
C6       0.16694    0.86220    0.70097   1.00
C6       0.19641    0.83756    0.71661   1.00
C4       0.17056    0.82461    0.73615   1.00
C5       0.11899    0.84329    0.74218   1.00
H2       0.07414    0.80513    0.74004   1.00
H2       0.12461    0.85557    0.75623   1.00
H2       0.12491    0.88132    0.73414   1.00
C4       0.24924    0.82667    0.71088   1.00
C5       0.27903    0.83904    0.68944   1.00
H2       0.31491    0.88576    0.68820   1.00
H2       0.29711    0.80943    0.68693   1.00
H2       0.24393    0.83012    0.67978   1.00
C3       0.19710    0.79852    0.75017   1.00
H1       0.18061    0.79076    0.76342   1.00
C3       0.27290    0.79793    0.72613   1.00
H1       0.30738    0.78881    0.72280   1.00
C2       0.24703    0.78397    0.74512   1.00
