data_IRMOF10_interpen_symm_ligand11lp_label_c_1.

_audit_creation_method             'generated by an auxiliary program of Tobunporous'

_symmetry_space_group_name_H-M     'P 1'
_symmetry_Int_Tables_number        1
_symmetry_cell_setting             triclinic

_cell_length_a                    22.6523
_cell_length_b                    22.6523
_cell_length_c                    65.9502
_cell_angle_alpha                 90.0000
_cell_angle_beta                  90.0000
_cell_angle_gamma                 120.0000

loop_
_atom_site_label
_atom_site_fract_x
_atom_site_fract_y
_atom_site_fract_z
_atom_site_occupancy
O1       0.00000    -0.00000   0.62500   1.00
Zn1      0.00000    -0.00000   0.59589   1.00
Zn1      0.94848    1.04288    0.63392   1.00
Zn1      0.09439    0.05152    0.63392   1.00
Zn1      -0.04288   0.90561    0.63392   1.00
O2       0.93860    0.02610    0.58587   1.00
O2       0.08750    0.06140    0.58587   1.00
O2       -0.02610   0.91250    0.58587   1.00
O2       0.91305    0.07161    0.61181   1.00
O2       0.00462    0.12022    0.65110   1.00
O2       0.87413    0.98074    0.65071   1.00
O2       0.15856    0.08695    0.61181   1.00
O2       0.10660    0.12587    0.65071   1.00
O2       0.11559    0.99538    0.65110   1.00
O2       -0.07161   0.84144    0.61181   1.00
O2       0.87978    0.88441    0.65110   1.00
O2       0.01926    0.89340    0.65071   1.00
C1       0.91390    0.06020    0.59358   1.00
C1       0.14630    0.08610    0.59358   1.00
C1       -0.06020   0.85370    0.59358   1.00
C1       0.06663    0.14397    0.65673   1.00
C1       0.85603    0.92267    0.65673   1.00
C1       0.07733    0.93337    0.65673   1.00
O1       -0.00000   0.00000    0.87500   1.00
Zn1      -0.00000   0.00000    0.90411   1.00
Zn1      1.04288    0.94848    0.86608   1.00
Zn1      0.05152    0.09439    0.86608   1.00
Zn1      0.90561    -0.04288   0.86608   1.00
O2       0.02610    0.93860    0.91413   1.00
O2       0.06140    0.08750    0.91413   1.00
O2       0.91250    -0.02610   0.91413   1.00
O2       0.07161    0.91305    0.88819   1.00
O2       0.12022    0.00462    0.84890   1.00
O2       0.98074    0.87413    0.84929   1.00
O2       0.08695    0.15856    0.88819   1.00
O2       0.12587    0.10660    0.84929   1.00
O2       0.99538    0.11559    0.84890   1.00
O2       0.84144    -0.07161   0.88819   1.00
O2       0.88441    0.87978    0.84890   1.00
O2       0.89340    0.01926    0.84929   1.00
C1       0.06020    0.91390    0.90642   1.00
C1       0.08610    0.14630    0.90642   1.00
C1       0.85370    -0.06020   0.90642   1.00
C1       0.14397    0.06663    0.84327   1.00
C1       0.92267    0.85603    0.84327   1.00
C1       0.93337    0.07733    0.84327   1.00
O1       0.00000    0.00000    0.37500   1.00
Zn1      0.00000    0.00000    0.40411   1.00
Zn1      0.05152    -0.04288   0.36608   1.00
Zn1      0.90561    0.94848    0.36608   1.00
Zn1      1.04288    0.09439    0.36608   1.00
O2       0.06140    -0.02610   0.41413   1.00
O2       0.91250    0.93860    0.41413   1.00
O2       0.02610    0.08750    0.41413   1.00
O2       0.08695    -0.07161   0.38819   1.00
O2       0.99538    0.87978    0.34890   1.00
O2       0.12587    0.01926    0.34929   1.00
O2       0.84144    0.91305    0.38819   1.00
O2       0.89340    0.87413    0.34929   1.00
O2       0.88441    0.00462    0.34890   1.00
O2       0.07161    0.15856    0.38819   1.00
O2       0.12022    0.11559    0.34890   1.00
O2       0.98074    0.10660    0.34929   1.00
C1       0.08610    -0.06020   0.40642   1.00
C1       0.85370    0.91390    0.40642   1.00
C1       0.06020    0.14630    0.40642   1.00
C1       0.93337    0.85603    0.34327   1.00
C1       0.14397    0.07733    0.34327   1.00
C1       0.92267    0.06663    0.34327   1.00
O1       0.00000    0.00000    0.12500   1.00
Zn1      0.00000    0.00000    0.09589   1.00
Zn1      -0.04288   0.05152    0.13392   1.00
Zn1      0.94848    0.90561    0.13392   1.00
Zn1      0.09439    1.04288    0.13392   1.00
O2       -0.02610   0.06140    0.08587   1.00
O2       0.93860    0.91250    0.08587   1.00
O2       0.08750    0.02610    0.08587   1.00
O2       -0.07161   0.08695    0.11181   1.00
O2       0.87978    0.99538    0.15110   1.00
O2       0.01926    0.12587    0.15071   1.00
O2       0.91305    0.84144    0.11181   1.00
O2       0.87413    0.89340    0.15071   1.00
O2       0.00462    0.88441    0.15110   1.00
O2       0.15856    0.07161    0.11181   1.00
O2       0.11559    0.12022    0.15110   1.00
O2       0.10660    0.98074    0.15071   1.00
C1       -0.06020   0.08610    0.09358   1.00
C1       0.91390    0.85370    0.09358   1.00
C1       0.14630    0.06020    0.09358   1.00
C1       0.85603    0.93337    0.15673   1.00
C1       0.07733    0.14397    0.15673   1.00
C1       0.06663    0.92267    0.15673   1.00
O1       0.66667    0.33333    0.95833   1.00
Zn1      0.66667    0.33333    0.92922   1.00
Zn1      0.61515    0.37621    0.96725   1.00
Zn1      0.76106    0.38485    0.96725   1.00
Zn1      -0.37621   0.23894    0.96725   1.00
O2       0.60527    0.35943    0.91920   1.00
O2       0.75417    0.39473    0.91920   1.00
O2       0.64057    0.24583    0.91920   1.00
O2       0.57972    0.40494    0.94514   1.00
O2       0.67129    0.45355    0.98443   1.00
O2       0.54080    0.31407    0.98404   1.00
O2       0.82523    0.42028    0.94514   1.00
O2       0.77327    0.45920    0.98404   1.00
O2       -0.21774   0.32871    0.98443   1.00
O2       0.59506    0.17477    0.94514   1.00
O2       0.54645    0.21774    0.98443   1.00
O2       -0.31407   0.22673    0.98404   1.00
C1       0.58057    0.39353    0.92691   1.00
C1       0.81297    0.41943    0.92691   1.00
C1       0.60647    0.18703    0.92691   1.00
C1       0.73330    0.47730    0.99006   1.00
C1       0.52270    0.25600    0.99006   1.00
C1       -0.25600   0.26670    0.99006   1.00
O1       0.66667    0.33333    0.20833   1.00
Zn1      0.66667    0.33333    0.23744   1.00
Zn1      0.70954    0.28182    0.19942   1.00
Zn1      0.71818    0.42773    0.19942   1.00
Zn1      0.57227    0.29046    0.19942   1.00
O2       0.69277    0.27193    0.24746   1.00
O2       0.72807    0.42083    0.24746   1.00
O2       0.57917    0.30723    0.24746   1.00
O2       0.73828    0.24638    0.22152   1.00
O2       0.78688    0.33796    0.18224   1.00
O2       0.64740    0.20747    0.18263   1.00
O2       0.75362    0.49189    0.22152   1.00
O2       0.79253    0.43994    0.18263   1.00
O2       0.66204    0.44893    0.18224   1.00
O2       0.50811    0.26172    0.22152   1.00
O2       0.55107    0.21312    0.18224   1.00
O2       0.56006    0.35260    0.18263   1.00
C1       0.72687    0.24723    0.23975   1.00
C1       0.75277    0.47963    0.23975   1.00
C1       0.52037    0.27313    0.23975   1.00
C1       0.81063    0.39997    0.17661   1.00
C1       0.58933    0.18937    0.17661   1.00
C1       0.60003    0.41067    0.17661   1.00
O1       0.66667    0.33333    0.70833   1.00
Zn1      0.66667    0.33333    0.73744   1.00
Zn1      0.71818    0.29046    0.69942   1.00
Zn1      0.57227    0.28182    0.69942   1.00
Zn1      0.70954    0.42773    0.69942   1.00
O2       0.72807    0.30723    0.74746   1.00
O2       0.57917    0.27193    0.74746   1.00
O2       0.69277    0.42083    0.74746   1.00
O2       0.75362    0.26172    0.72152   1.00
O2       0.66204    0.21312    0.68224   1.00
O2       0.79253    0.35260    0.68263   1.00
O2       0.50811    0.24638    0.72152   1.00
O2       0.56006    0.20747    0.68263   1.00
O2       0.55107    0.33796    0.68224   1.00
O2       0.73828    0.49189    0.72152   1.00
O2       0.78688    0.44893    0.68224   1.00
O2       0.64740    0.43994    0.68263   1.00
C1       0.75277    0.27313    0.73975   1.00
C1       0.52037    0.24723    0.73975   1.00
C1       0.72687    0.47963    0.73975   1.00
C1       0.60003    0.18937    0.67661   1.00
C1       0.81063    0.41067    0.67661   1.00
C1       0.58933    0.39997    0.67661   1.00
O1       0.66667    0.33333    0.45833   1.00
Zn1      0.66667    0.33333    0.42922   1.00
Zn1      -0.37621   0.38485    0.46725   1.00
Zn1      0.61515    0.23894    0.46725   1.00
Zn1      0.76106    0.37621    0.46725   1.00
O2       0.64057    0.39473    0.41920   1.00
O2       0.60527    0.24583    0.41920   1.00
O2       0.75417    0.35943    0.41920   1.00
O2       0.59506    0.42028    0.44514   1.00
O2       0.54645    0.32871    0.48443   1.00
O2       -0.31407   0.45920    0.48404   1.00
O2       0.57972    0.17477    0.44514   1.00
O2       0.54080    0.22673    0.48404   1.00
O2       0.67129    0.21774    0.48443   1.00
O2       0.82523    0.40494    0.44514   1.00
O2       -0.21774   0.45355    0.48443   1.00
O2       0.77327    0.31407    0.48404   1.00
C1       0.60647    0.41943    0.42691   1.00
C1       0.58057    0.18703    0.42691   1.00
C1       0.81297    0.39353    0.42691   1.00
C1       0.52270    0.26670    0.49006   1.00
C1       -0.25600   0.47730    0.49006   1.00
C1       0.73330    0.25600    0.49006   1.00
O1       0.33333    0.66667    0.29167   1.00
Zn1      0.33333    0.66667    0.26256   1.00
Zn1      0.28182    0.70954    0.30058   1.00
Zn1      0.42773    0.71818    0.30058   1.00
Zn1      0.29046    0.57227    0.30058   1.00
O2       0.27193    0.69277    0.25254   1.00
O2       0.42083    0.72807    0.25254   1.00
O2       0.30723    0.57917    0.25254   1.00
O2       0.24638    0.73828    0.27848   1.00
O2       0.33796    0.78688    0.31776   1.00
O2       0.20747    0.64740    0.31737   1.00
O2       0.49189    0.75362    0.27848   1.00
O2       0.43994    0.79253    0.31737   1.00
O2       0.44893    0.66204    0.31776   1.00
O2       0.26172    0.50811    0.27848   1.00
O2       0.21312    0.55107    0.31776   1.00
O2       0.35260    0.56006    0.31737   1.00
C1       0.24723    0.72687    0.26025   1.00
C1       0.47963    0.75277    0.26025   1.00
C1       0.27313    0.52037    0.26025   1.00
C1       0.39997    0.81063    0.32339   1.00
C1       0.18937    0.58933    0.32339   1.00
C1       0.41067    0.60003    0.32339   1.00
O1       0.33333    0.66667    0.54167   1.00
Zn1      0.33333    0.66667    0.57078   1.00
Zn1      0.37621    0.61515    0.53275   1.00
Zn1      0.38485    0.76106    0.53275   1.00
Zn1      0.23894    -0.37621   0.53275   1.00
O2       0.35943    0.60527    0.58080   1.00
O2       0.39473    0.75417    0.58080   1.00
O2       0.24583    0.64057    0.58080   1.00
O2       0.40494    0.57972    0.55486   1.00
O2       0.45355    0.67129    0.51557   1.00
O2       0.31407    0.54080    0.51596   1.00
O2       0.42028    0.82523    0.55486   1.00
O2       0.45920    0.77327    0.51596   1.00
O2       0.32871    -0.21774   0.51557   1.00
O2       0.17477    0.59506    0.55486   1.00
O2       0.21774    0.54645    0.51557   1.00
O2       0.22673    -0.31407   0.51596   1.00
C1       0.39353    0.58057    0.57309   1.00
C1       0.41943    0.81297    0.57309   1.00
C1       0.18703    0.60647    0.57309   1.00
C1       0.47730    0.73330    0.50994   1.00
C1       0.25600    0.52270    0.50994   1.00
C1       0.26670    -0.25600   0.50994   1.00
O1       0.33333    0.66667    0.04167   1.00
Zn1      0.33333    0.66667    0.07078   1.00
Zn1      0.38485    -0.37621   0.03275   1.00
Zn1      0.23894    0.61515    0.03275   1.00
Zn1      0.37621    0.76106    0.03275   1.00
O2       0.39473    0.64057    0.08080   1.00
O2       0.24583    0.60527    0.08080   1.00
O2       0.35943    0.75417    0.08080   1.00
O2       0.42028    0.59506    0.05486   1.00
O2       0.32871    0.54645    0.01557   1.00
O2       0.45920    -0.31407   0.01596   1.00
O2       0.17477    0.57972    0.05486   1.00
O2       0.22673    0.54080    0.01596   1.00
O2       0.21774    0.67129    0.01557   1.00
O2       0.40494    0.82523    0.05486   1.00
O2       0.45355    -0.21774   0.01557   1.00
O2       0.31407    0.77327    0.01596   1.00
C1       0.41943    0.60647    0.07309   1.00
C1       0.18703    0.58057    0.07309   1.00
C1       0.39353    0.81297    0.07309   1.00
C1       0.26670    0.52270    0.00994   1.00
C1       0.47730    -0.25600   0.00994   1.00
C1       0.25600    0.73330    0.00994   1.00
O1       0.33333    0.66667    0.79167   1.00
Zn1      0.33333    0.66667    0.76256   1.00
Zn1      0.29046    0.71818    0.80058   1.00
Zn1      0.28182    0.57227    0.80058   1.00
Zn1      0.42773    0.70954    0.80058   1.00
O2       0.30723    0.72807    0.75254   1.00
O2       0.27193    0.57917    0.75254   1.00
O2       0.42083    0.69277    0.75254   1.00
O2       0.26172    0.75362    0.77848   1.00
O2       0.21312    0.66204    0.81776   1.00
O2       0.35260    0.79253    0.81737   1.00
O2       0.24638    0.50811    0.77848   1.00
O2       0.20747    0.56006    0.81737   1.00
O2       0.33796    0.55107    0.81776   1.00
O2       0.49189    0.73828    0.77848   1.00
O2       0.44893    0.78688    0.81776   1.00
O2       0.43994    0.64740    0.81737   1.00
C1       0.27313    0.75277    0.76025   1.00
C1       0.24723    0.52037    0.76025   1.00
C1       0.47963    0.72687    0.76025   1.00
C1       0.18937    0.60003    0.82339   1.00
C1       0.41067    0.81063    0.82339   1.00
C1       0.39997    0.58933    0.82339   1.00
C5       0.10545    0.94731    0.54706   1.00
H2       0.07936    0.97749    0.54878   1.00
H2       0.11263    0.94452    0.53049   1.00
C5       0.17530    0.98429    0.55797   1.00
H2       0.21434    1.02564    0.54827   1.00
H2       0.19262    0.94737    0.56162   1.00
O_3      -0.09398   0.59363    0.55121   1.00
C4       -0.14329   0.68571    0.55169   1.00
C3c      -0.08798   0.74912    0.54602   1.00
H1       -0.06651   0.75575    0.53098   1.00
C3d      -0.17113   0.67843    0.57125   1.00
C3       -0.05893   0.80445    0.55964   1.00
O2       -0.01053   0.86705    0.55224   1.00
C3       -0.14150   0.73303    0.58498   1.00
H1       -0.16305   0.72431    0.60005   1.00
C2       -0.08507   0.79729    0.57957   1.00
C5       -0.11944   0.54668    0.56743   1.00
H2       -0.14461   0.49278    0.56210   1.00
H2       -0.15711   0.55338    0.57660   1.00
C5       -0.05941   0.55999    0.58083   1.00
H2       -0.03310   0.61438    0.58570   1.00
H2       -0.02245   0.55254    0.57157   1.00
C5       -0.08299   0.51254    0.59932   1.00
H2       -0.10973   0.45813    0.59456   1.00
H2       -0.11805   0.52160    0.60894   1.00
H2       -0.03827   0.52198    0.60869   1.00
C5       -0.28627   0.60721    0.57270   1.00
C5       0.05537    0.87635    0.55535   1.00
H2       -0.29188   0.60758    0.55595   1.00
H2       -0.29424   0.64795    0.57940   1.00
H2       0.06092    0.83659    0.54696   1.00
H2       0.06619    0.87262    0.57172   1.00
H2       0.17240    1.00930    0.57226   1.00
H2       -0.41179   0.50229    0.55493   1.00
H2       -0.42517   0.55540    0.57290   1.00
C2       -0.22890   0.51340    0.51177   1.00
C3       -0.25194   0.56091    0.51099   1.00
O2       -0.31238   0.54444    0.50138   1.00
C3       -0.17512   0.52613    0.52522   1.00
H1       -0.15513   0.49168    0.52580   1.00
C3a      -0.22238   0.61839    0.52387   1.00
H1       -0.24321   0.65218    0.52392   1.00
C3b      -0.14733   0.58216    0.53847   1.00
C4       -0.17100   0.62877    0.53791   1.00
O_3      -0.22218   0.61571    0.57810   1.00
C5       -0.29927   0.57558    0.48211   1.00
H2       -0.26805   0.63228    0.48334   1.00
C5       -0.36842   0.55589    0.47263   1.00
H2       -0.27179   0.55726    0.47222   1.00
H2       -0.38675   0.58912    0.47923   1.00
H2       -0.40519   0.50284    0.47755   1.00
C5       -0.36578   0.56111    0.44929   1.00
H2       -0.32510   0.61281    0.44464   1.00
H2       -0.41539   0.55202    0.44310   1.00
H2       -0.35592   0.52184    0.44232   1.00
C5       -0.34067   0.53833    0.58085   1.00
H2       -0.34275   0.54200    0.59765   1.00
H2       -0.32437   0.50031    0.57760   1.00
C5       -0.41100   0.51512    0.57132   1.00
H2       -0.45057   0.46850    0.57910   1.00
C5       0.13249    0.26913    0.57602   1.00
H2       0.08537    0.22188    0.57145   1.00
H2       0.14552    0.30509    0.56311   1.00
C5       0.11830    0.29885    0.59534   1.00
H2       0.09301    0.32873    0.59142   1.00
H2       0.16694    0.33262    0.60341   1.00
O_3      0.44193    0.27711    0.56448   1.00
C4       0.31401    0.17109    0.55158   1.00
C3c      0.26949    0.19729    0.55274   1.00
H1       0.27778    0.23935    0.54308   1.00
C3d      0.30174    0.11564    0.56409   1.00
C3       0.21447    0.17058    0.56647   1.00
O2       0.16838    0.19317    0.56500   1.00
C3       0.24778    0.08978    0.57805   1.00
H1       0.24182    0.04884    0.58783   1.00
C2       0.20272    0.11617    0.57957   1.00
C5       0.47730    0.25358    0.57662   1.00
H2       0.52922    0.26978    0.57061   1.00
H2       0.44866    0.19680    0.57775   1.00
C5       0.48457    0.28375    0.59768   1.00
H2       0.43280    0.26916    0.60346   1.00
H2       0.51378    0.34041    0.59640   1.00
C5       0.52049    0.25870    0.61213   1.00
H2       0.57204    0.27268    0.60638   1.00
H2       0.49017    0.20235    0.61397   1.00
H2       0.52669    0.28246    0.62732   1.00
C5       0.32917    0.04113    0.54952   1.00
C5       0.18699    0.24847    0.57841   1.00
H2       0.33276    0.06266    0.53411   1.00
H2       0.27641    -0.00251   0.55177   1.00
H2       0.23818    0.29185    0.57425   1.00
H2       0.18979    0.23482    0.59455   1.00
H2       0.08282    0.25742    0.60583   1.00
H2       0.39781    0.00807    0.51842   1.00
H2       0.32402    -0.06689   0.52879   1.00
C2       0.48661    0.25507    0.51178   1.00
C3       0.42212    0.20445    0.50466   1.00
O2       0.41676    0.16959    0.48696   1.00
C3       0.49164    0.27924    0.53186   1.00
H1       0.53991    0.31920    0.53760   1.00
C3a      0.36518    0.17814    0.51773   1.00
H1       0.31701    0.13670    0.51242   1.00
C3b      0.43538    0.25144    0.54503   1.00
C4       0.37154    0.20038    0.53802   1.00
O_3      0.34697    0.09137    0.56463   1.00
C5       0.39492    0.19533    0.47092   1.00
H2       0.34422    0.19019    0.47428   1.00
C5       0.38915    0.15348    0.45203   1.00
H2       0.43239    0.25013    0.46806   1.00
H2       0.34021    0.10419    0.45282   1.00
H2       0.43071    0.14080    0.45283   1.00
C5       0.39362    0.19110    0.43209   1.00
H2       0.35531    0.20809    0.43226   1.00
H2       0.38351    0.15704    0.41879   1.00
H2       0.44569    0.23620    0.42985   1.00
C5       0.37936    0.01511    0.55095   1.00
H2       0.36760    -0.01665   0.56488   1.00
H2       0.43151    0.05980    0.55295   1.00
C5       0.37709    -0.02569   0.53199   1.00
H2       0.40890    -0.04976   0.53445   1.00
C5       0.74814    0.03467    0.63290   1.00
H2       0.74176    -0.01600   0.62915   1.00
H2       0.69638    0.02850    0.63194   1.00
C5       0.77676    0.05506    0.65468   1.00
H2       0.73528    0.03004    0.66611   1.00
H2       0.80191    0.11137    0.65655   1.00
O_3      0.86049    0.27860    0.55629   1.00
C4       0.82811    0.14209    0.55157   1.00
C3c      0.79371    0.10841    0.56937   1.00
H1       0.74495    0.10378    0.57291   1.00
C3d      0.89113    0.14671    0.54709   1.00
C3       0.82181    0.08115    0.58298   1.00
O2       0.78158    0.04178    0.59876   1.00
C3       0.91986    0.12077    0.56081   1.00
H1       0.96940    0.12765    0.55709   1.00
C2       0.88610    0.08721    0.57899   1.00
C5       0.92585    0.32543    0.54873   1.00
H2       0.92420    0.36122    0.53744   1.00
H2       0.95010    0.29845    0.54139   1.00
C5       0.96938    0.36668    0.56658   1.00
H2       0.96946    0.33079    0.57813   1.00
H2       0.94504    0.39389    0.57369   1.00
C5       1.04235    0.41743    0.55980   1.00
H2       1.04262    0.45313    0.54817   1.00
H2       1.06752    0.39018    0.55335   1.00
H2       1.07298    0.44815    0.57297   1.00
C5       0.90970    0.14128    0.51332   1.00
C5       0.79384    0.08273    0.61618   1.00
H2       0.85530    0.12211    0.50944   1.00
H2       0.91734    0.09673    0.51561   1.00
H2       0.78025    0.12295    0.61311   1.00
H2       0.84851    0.10907    0.62102   1.00
H2       0.81433    0.03808    0.65812   1.00
H2       0.87664    0.14828    0.47139   1.00
H2       0.91602    0.09608    0.47505   1.00
C2       0.74898    0.23273    0.51075   1.00
C3       0.72918    0.16317    0.50875   1.00
O2       0.69880    0.12837    0.49111   1.00
C3       0.79241    0.27009    0.52702   1.00
H1       0.80708    0.32295    0.52928   1.00
C3a      0.75426    0.13329    0.52254   1.00
H1       0.74176    0.08107    0.52012   1.00
C3b      0.81900    0.24081    0.54032   1.00
C4       0.80012    0.17195    0.53813   1.00
O_3      0.92942    0.18379    0.53057   1.00
C5       0.62779    0.08710    0.49391   1.00
H2       0.61583    0.04910    0.50629   1.00
C5       0.59819    0.04954    0.47390   1.00
H2       0.60417    0.11867    0.49771   1.00
H2       0.60710    0.00550    0.47303   1.00
H2       0.62828    0.08485    0.46137   1.00
C5       0.52170    0.02537    0.47144   1.00
H2       0.49321    -0.00536   0.48486   1.00
H2       0.50076    -0.00655   0.45758   1.00
H2       0.51284    0.06946    0.46968   1.00
C5       0.95391    0.18377    0.49568   1.00
H2       1.00655    0.19293    0.49800   1.00
H2       0.95716    0.23449    0.49616   1.00
C5       0.92518    0.14916    0.47509   1.00
H2       0.96218    0.17789    0.46281   1.00
C5       0.69801    -0.10775   0.86115   1.00
H2       0.73343    -0.05182   0.86169   1.00
H2       0.64605    -0.11466   0.85973   1.00
C5       0.71481    -0.13804   0.84245   1.00
H2       0.69157    -0.13083   0.82847   1.00
H2       0.69510    -0.19350   0.84476   1.00
O_3      0.60660    -0.28448   0.95269   1.00
C4       0.68590    -0.14198   0.94839   1.00
C3c      0.67852    -0.12814   0.92807   1.00
H1       0.62909    -0.13920   0.92254   1.00
C3d      0.75095    -0.12628   0.95537   1.00
C3       0.73415    -0.10088   0.91456   1.00
O2       0.72493    -0.08098   0.89565   1.00
C3       0.80616    -0.10036   0.94186   1.00
H1       0.85454    -0.09138   0.94773   1.00
C2       0.79944    -0.08675   0.92121   1.00
C5       0.63816    -0.31160   0.96508   1.00
H2       0.60475    -0.34250   0.97786   1.00
H2       0.68689    -0.27023   0.97158   1.00
C5       0.65330    -0.35748   0.95190   1.00
H2       0.68509    -0.32708   0.93881   1.00
H2       0.60424    -0.39894   0.94564   1.00
C5       0.69001    -0.38732   0.96406   1.00
H2       0.65875    -0.41734   0.97724   1.00
H2       0.74009    -0.34606   0.96971   1.00
H2       0.69930    -0.42188   0.95429   1.00
C5       0.77214    -0.09029   0.98826   1.00
C5       0.70579    -0.13487   0.88166   1.00
H2       0.72793    -0.08168   0.98882   1.00
H2       0.81853    -0.04159   0.98387   1.00
H2       0.65641    -0.17994   0.88632   1.00
H2       0.74433    -0.15188   0.88058   1.00
H2       0.77101    -0.11180   0.83965   1.00
H2       0.72493    -0.07603   1.02767   1.00
H2       0.81295    -0.01128   1.02277   1.00
C2       0.51724    -0.23191   0.98962   1.00
C3       0.55405    -0.16051   0.98690   1.00
O2       0.54798    -0.11815   1.00075   1.00
C3       0.53537    -0.27244   0.97772   1.00
H1       0.50706    -0.32735   0.97906   1.00
C3a      0.60858    -0.13139   0.97295   1.00
H1       0.63872    -0.07645   0.97189   1.00
C3b      0.59100    -0.24319   0.96433   1.00
C4       0.62821    -0.17215   0.96188   1.00
O_3      0.75988    -0.14368   0.97479   1.00
C5       0.50493    -0.09510   0.99302   1.00
H2       0.52533    -0.06637   0.97855   1.00
C5       0.50179    -0.04778   1.00903   1.00
H2       0.45261    -0.13866   0.99021   1.00
H2       0.54878    0.00306    1.00775   1.00
H2       0.50364    -0.06848   1.02420   1.00
C5       0.43762    -0.04089   1.00710   1.00
H2       0.43376    -0.02538   0.99138   1.00
H2       0.43996    -0.00183   1.01784   1.00
H2       0.39034    -0.08982   1.01090   1.00
C5       0.78288    -0.11110   1.00928   1.00
H2       0.83344    -0.10820   1.00959   1.00
H2       0.74359    -0.16554   1.01176   1.00
C5       0.77813    -0.06630   1.02604   1.00
H2       0.79320    -0.07815   1.04086   1.00
C5       0.27088    0.13464    0.92320   1.00
H2       0.22407    0.08725    0.92787   1.00
H2       0.30735    0.14801    0.93598   1.00
C5       0.30023    0.12085    0.90373   1.00
H2       0.33071    0.09606    0.90746   1.00
H2       0.33335    0.16960    0.89562   1.00
O_3      0.27579    0.44239    0.93535   1.00
C4       0.17109    0.31400    0.94842   1.00
C3c      0.19791    0.27005    0.94706   1.00
H1       0.24045    0.27877    0.95656   1.00
C3d      0.11503    0.30116    0.93612   1.00
C3       0.17118    0.21503    0.93333   1.00
O2       0.19448    0.16946    0.93460   1.00
C3       0.08914    0.24721    0.92215   1.00
H1       0.04769    0.24081    0.91253   1.00
C2       0.11613    0.20271    0.92043   1.00
C5       0.25128    0.47728    0.92337   1.00
H2       0.26720    0.52909    0.92943   1.00
H2       0.19448    0.44815    0.92243   1.00
C5       0.28078    0.48484    0.90221   1.00
H2       0.26650    0.43320    0.89638   1.00
H2       0.33748    0.51453    0.90331   1.00
C5       0.25467    0.52026    0.88794   1.00
H2       0.26835    0.57167    0.89374   1.00
H2       0.19828    0.48947    0.88627   1.00
H2       0.27795    0.52668    0.87267   1.00
C5       0.04031    0.32759    0.95105   1.00
C5       0.24939    0.18859    0.92100   1.00
H2       0.06247    0.33142    0.96638   1.00
H2       -0.00306   0.27464    0.94888   1.00
H2       0.29258    0.23997    0.92509   1.00
H2       0.23506    0.19120    0.90492   1.00
H2       0.25860    0.08510    0.89334   1.00
H2       0.00740    0.39548    0.98243   1.00
H2       -0.06752   0.32125    0.97223   1.00
C2       0.25500    0.48659    0.98822   1.00
C3       0.20509    0.42191    0.99543   1.00
O2       0.17073    0.41619    1.01326   1.00
C3       0.27853    0.49186    0.96805   1.00
H1       0.31796    0.54030    0.96225   1.00
C3a      0.17882    0.36498    0.98235   1.00
H1       0.13788    0.31662    0.98773   1.00
C3b      0.25074    0.43560    0.95489   1.00
C4       0.20038    0.37155    0.96198   1.00
O_3      0.09009    0.34585    0.93577   1.00
C5       0.19745    0.39477    1.02914   1.00
H2       0.19273    0.34430    1.02570   1.00
C5       0.15610    0.38858    1.04819   1.00
H2       0.25222    0.43266    1.03185   1.00
H2       0.10707    0.33935    1.04751   1.00
H2       0.14285    0.42975    1.04753   1.00
C5       0.19460    0.39346    1.06798   1.00
H2       0.21211    0.35556    1.06767   1.00
H2       0.16094    0.38303    1.08141   1.00
H2       0.23943    0.44574    1.07014   1.00
C5       0.01352    0.37719    0.94985   1.00
H2       -0.01878   0.36513    0.93602   1.00
H2       0.05780    0.42956    0.94776   1.00
C5       -0.02680   0.37449    0.96897   1.00
H2       -0.05146   0.40583    0.96668   1.00
C5       0.03502    0.74838    0.86706   1.00
H2       -0.01569   0.74192    0.87080   1.00
H2       0.02891    0.69663    0.86800   1.00
C5       0.05547    0.77709    0.84529   1.00
H2       0.03053    0.73564    0.83384   1.00
H2       0.11179    0.80230    0.84344   1.00
O_3      0.27866    0.86066    0.94375   1.00
C4       0.14209    0.82811    0.94843   1.00
C3c      0.10850    0.79376    0.93061   1.00
H1       0.10394    0.74503    0.92707   1.00
C3d      0.14662    0.89107    0.95292   1.00
C3       0.08124    0.82186    0.91700   1.00
O2       0.04195    0.78167    0.90121   1.00
C3       0.12067    0.91981    0.93921   1.00
H1       0.12748    0.96932    0.94294   1.00
C2       0.08721    0.88610    0.92101   1.00
C5       0.32541    0.92601    0.95133   1.00
H2       0.36118    0.92436    0.96263   1.00
H2       0.29835    0.95018    0.95868   1.00
C5       0.36670    0.96963    0.93350   1.00
H2       0.33083    0.96971    0.92195   1.00
H2       0.39398    0.94536    0.92640   1.00
C5       0.41737    1.04259    0.94031   1.00
H2       0.45305    1.04286    0.95196   1.00
H2       0.39004    1.06769    0.94676   1.00
H2       0.44811    1.07329    0.92716   1.00
C5       0.14103    0.90950    0.98670   1.00
C5       0.08299    0.79404    0.88380   1.00
H2       0.12190    0.85509    0.99057   1.00
H2       0.09645    0.91709    0.98440   1.00
H2       0.12324    0.78050    0.88688   1.00
H2       0.10929    0.84873    0.87898   1.00
H2       0.03845    0.81463    0.84186   1.00
H2       0.14791    0.87630    1.02862   1.00
H2       0.09565    0.91561    1.02496   1.00
C2       0.23273    0.74899    0.98926   1.00
C3       0.16314    0.72910    0.99123   1.00
O2       0.12829    0.69863    1.00885   1.00
C3       0.27012    0.79250    0.97300   1.00
H1       0.32301    0.80723    0.97075   1.00
C3a      0.13326    0.75418    0.97744   1.00
H1       0.08102    0.74161    0.97984   1.00
C3b      0.24084    0.81909    0.95970   1.00
C4       0.17195    0.80012    0.96187   1.00
O_3      0.18361    0.92932    0.96946   1.00
C5       0.08709    0.62762    1.00603   1.00
H2       0.04914    0.61566    0.99364   1.00
C5       0.04947    0.59791    1.02603   1.00
H2       0.11873    0.60407    1.00223   1.00
H2       0.00539    0.60675    1.02688   1.00
H2       0.08472    0.62798    1.03857   1.00
C5       0.02537    0.52143    1.02846   1.00
H2       -0.00529   0.49297    1.01503   1.00
H2       -0.00660   0.50041    1.04231   1.00
H2       0.06949    0.51263    1.03023   1.00
C5       0.18342    0.95366    1.00436   1.00
H2       0.19253    1.00629    1.00206   1.00
H2       0.23417    0.95697    1.00389   1.00
C5       0.14874    0.92482    1.02494   1.00
H2       0.17740    0.96179    1.03722   1.00
C5       -0.02951   0.02505    0.46268   1.00
H2       -0.07071   0.01936    0.45233   1.00
H2       -0.04541   0.03102    0.47813   1.00
C5       -0.02300   -0.03972   0.46158   1.00
H2       -0.06220   -0.08102   0.47126   1.00
H2       0.02857    -0.02787   0.46677   1.00
O_3      0.26082    0.34565    0.47020   1.00
C4       0.14226    0.31467    0.44818   1.00
C3c      0.09235    0.24928    0.45454   1.00
H1       0.07490    0.24120    0.47010   1.00
C3d      0.16358    0.32432    0.42778   1.00
C3       0.06495    0.19335    0.44114   1.00
O2       0.01054    0.13295    0.44776   1.00
C3       0.13735    0.26848    0.41449   1.00
H1       0.15701    0.27789    0.39917   1.00
C2       0.08740    0.20187    0.42073   1.00
C5       0.32064    0.38009    0.45839   1.00
H2       0.35927    0.42909    0.46546   1.00
H2       0.30900    0.39134    0.44290   1.00
C5       0.35111    0.33384    0.45661   1.00
H2       0.31185    0.28416    0.45008   1.00
H2       0.36311    0.32347    0.47215   1.00
C5       0.41533    0.36650    0.44334   1.00
H2       0.45457    0.41636    0.44970   1.00
H2       0.40296    0.37471    0.42762   1.00
H2       0.43771    0.33264    0.44258   1.00
C5       0.18950    0.42801    0.41488   1.00
C5       0.03417    0.09106    0.45614   1.00
H2       0.16434    0.43884    0.42768   1.00
H2       0.15183    0.40388    0.40232   1.00
H2       0.06747    0.11668    0.46952   1.00
H2       0.06468    0.07975    0.44508   1.00
H2       -0.03169   -0.06052   0.44580   1.00
H2       0.22083    0.56721    0.42056   1.00
H2       0.18268    0.53286    0.39598   1.00
C2       0.23306    0.48508    0.48877   1.00
C3       0.17160    0.46833    0.47870   1.00
O2       0.14932    0.51491    0.47769   1.00
C3       0.26145    0.44245    0.48586   1.00
H1       0.30749    0.45287    0.49375   1.00
C3a      0.14118    0.41117    0.46571   1.00
H1       0.09629    0.40129    0.45722   1.00
C3b      0.23225    0.38694    0.47243   1.00
C4       0.17174    0.37096    0.46219   1.00
O_3      0.21621    0.38646    0.42114   1.00
C5       0.09664    0.49817    0.49189   1.00
H2       0.05229    0.44625    0.48896   1.00
C5       0.07406    0.55124    0.48959   1.00
H2       0.11506    0.49978    0.50767   1.00
H2       0.03958    0.53724    0.47622   1.00
H2       0.12027    0.60086    0.48588   1.00
C5       0.03869    0.55794    0.50872   1.00
H2       -0.00400   0.50697    0.51312   1.00
H2       0.01798    0.59262    0.50589   1.00
H2       0.07527    0.58030    0.52166   1.00
C5       0.24887    0.49508    0.40737   1.00
H2       0.26642    0.48578    0.39255   1.00
H2       0.29197    0.51149    0.41824   1.00
C5       0.22942    0.55097    0.40538   1.00
H2       0.27141    0.59671    0.39791   1.00
C5       0.74600    0.70954    0.37926   1.00
H2       0.75128    0.74945    0.36843   1.00
H2       0.69299    0.66657    0.37745   1.00
C5       0.79781    0.68643    0.37378   1.00
H2       0.77821    0.64867    0.36118   1.00
H2       0.80765    0.66292    0.38724   1.00
O_3      0.67982    0.74426    0.48033   1.00
C4       0.68543    0.82881    0.44821   1.00
C3c      0.68452    0.79464    0.43034   1.00
H1       0.64008    0.74624    0.42669   1.00
C3d      0.74344    0.89229    0.45254   1.00
C3       0.74086    0.82158    0.41709   1.00
O2       0.73310    0.78954    0.39874   1.00
C3       0.80013    0.91863    0.43958   1.00
H1       0.84438    0.96629    0.44389   1.00
C2       0.80035    0.88437    0.42155   1.00
C5       0.72211    0.78142    0.49677   1.00
H2       0.69349    0.76931    0.51136   1.00
H2       0.74656    0.83746    0.49410   1.00
C5       0.77725    0.76220    0.49869   1.00
H2       0.80461    0.77251    0.48392   1.00
H2       0.75230    0.70628    0.50153   1.00
C5       0.82715    0.80231    0.51583   1.00
H2       0.80010    0.79263    0.53059   1.00
H2       0.85385    0.85803    0.51265   1.00
H2       0.86620    0.78649    0.51729   1.00
C5       0.71976    0.96746    0.46849   1.00
C5       0.75528    0.74140    0.40034   1.00
H2       0.66448    0.93685    0.46487   1.00
H2       0.74560    1.00638    0.45634   1.00
H2       0.72368    0.70146    0.41171   1.00
H2       0.80972    0.76509    0.40526   1.00
H2       0.84707    0.73028    0.36837   1.00
H2       0.62748    0.99637    0.49088   1.00
H2       0.69066    1.06947    0.47661   1.00
C2       0.51886    0.74589    0.49023   1.00
C3       0.51882    0.78518    0.47361   1.00
O2       0.47548    0.81150    0.47338   1.00
C3       0.57311    0.73212    0.49197   1.00
H1       0.57372    0.70074    0.50422   1.00
C3a      0.57314    0.81103    0.45957   1.00
H1       0.57435    0.84424    0.44759   1.00
C3b      0.62814    0.75971    0.47835   1.00
C4       0.62857    0.79963    0.46202   1.00
O_3      0.74896    0.92546    0.47067   1.00
C5       0.41916    0.77203    0.46064   1.00
H2       0.43582    0.77120    0.44476   1.00
C5       0.37439    0.80502    0.46094   1.00
H2       0.38913    0.71854    0.46625   1.00
H2       0.39718    0.84972    0.45053   1.00
H2       0.37727    0.82550    0.47650   1.00
C5       0.29970    0.75508    0.45504   1.00
H2       0.29814    0.73109    0.44019   1.00
H2       0.27021    0.78218    0.45376   1.00
H2       0.27347    0.71451    0.46678   1.00
C5       0.72814    1.00376    0.48862   1.00
H2       0.78286    1.04306    0.49050   1.00
H2       0.71525    0.96595    0.50106   1.00
C5       0.68252    1.03615    0.48995   1.00
H2       0.69512    1.06802    0.50384   1.00
C5       0.23767    0.13655    0.43542   1.00
H2       0.24825    0.13659    0.41897   1.00
H2       0.28805    0.15952    0.44308   1.00
C5       0.20374    0.18028    0.43923   1.00
H2       0.24273    0.23547    0.43983   1.00
H2       0.17517    0.16522    0.45381   1.00
O_3      0.13012    -0.16525   0.48894   1.00
C4       0.17196    -0.14292   0.44810   1.00
C3c      0.20329    -0.07218   0.44508   1.00
H1       0.24964    -0.03840   0.45318   1.00
C3d      0.11214    -0.18611   0.43719   1.00
C3       0.17510    -0.04388   0.43189   1.00
O2       0.21290    0.02484    0.42783   1.00
C3       0.08323    -0.15801   0.42433   1.00
H1       0.03601    -0.19301   0.41683   1.00
C2       0.11385    -0.08655   0.42127   1.00
C5       0.06577    -0.22427   0.49163   1.00
H2       0.06742    -0.26003   0.50293   1.00
H2       0.04607    -0.25230   0.47703   1.00
C5       0.01694    -0.20160   0.49929   1.00
H2       0.01675    -0.16438   0.48827   1.00
H2       0.03677    -0.17425   0.51395   1.00
C5       -0.05517   -0.26270   0.50194   1.00
H2       -0.05528   -0.30031   0.51281   1.00
H2       -0.07594   -0.28864   0.48717   1.00
H2       -0.08978   -0.24531   0.50797   1.00
C5       0.10244    -0.28786   0.42820   1.00
C5       0.19423    0.06132    0.44130   1.00
H2       0.15694    -0.26983   0.43162   1.00
H2       0.09773    -0.27863   0.41180   1.00
H2       0.20514    0.05342    0.45727   1.00
H2       0.13875    0.04475    0.44036   1.00
H2       0.16807    0.17434    0.42664   1.00
H2       0.14333    -0.38934   0.43242   1.00
H2       0.10836    -0.39040   0.40751   1.00
C2       0.25092    -0.23155   0.48972   1.00
C3       0.27532    -0.21747   0.46959   1.00
O2       0.31100    -0.24676   0.46165   1.00
C3       0.20283    -0.21262   0.49591   1.00
H1       0.18448    -0.22110   0.51136   1.00
C3a      0.25017    -0.18682   0.45609   1.00
H1       0.26643    -0.17994   0.44043   1.00
C3b      0.17631    -0.18417   0.48228   1.00
C4       0.19982    -0.17116   0.46218   1.00
O_3      0.07653    -0.25564   0.44076   1.00
C5       0.38149    -0.19904   0.46142   1.00
H2       0.39282    -0.15344   0.45208   1.00
C5       0.41716    -0.23491   0.45214   1.00
H2       0.40106    -0.18182   0.47709   1.00
H2       0.41193    -0.23513   0.43534   1.00
H2       0.38864    -0.28919   0.45710   1.00
C5       0.49290    -0.20165   0.45823   1.00
H2       0.51936    -0.14631   0.45462   1.00
H2       0.51845    -0.22542   0.44986   1.00
H2       0.49869    -0.20873   0.47475   1.00
C5       0.06103    -0.36412   0.43236   1.00
H2       0.00929    -0.38418   0.42569   1.00
H2       0.05421    -0.37173   0.44908   1.00
C5       0.09580    -0.40243   0.42385   1.00
H2       0.06105    -0.45834   0.42528   1.00
C5       0.29492    0.06456    0.13609   1.00
H2       0.27400    0.09716    0.14121   1.00
H2       0.35066    0.09456    0.13898   1.00
C5       0.26221    -0.00228   0.14856   1.00
H2       0.28795    0.00577    0.16352   1.00
H2       0.26621    -0.04271   0.14012   1.00
O_3      0.35647    0.05895    0.03287   1.00
C4       0.31432    0.14331    0.05170   1.00
C3c      0.32322    0.13875    0.07260   1.00
H1       0.37391    0.15752    0.07864   1.00
C3d      0.24793    0.11944    0.04419   1.00
C3       0.26722    0.10923    0.08598   1.00
O2       0.28049    0.11409    0.10647   1.00
C3       0.19195    0.08884    0.05741   1.00
H1       0.14181    0.06908    0.05085   1.00
C2       0.19997    0.08314    0.07856   1.00
C5       0.31441    0.02194    0.01638   1.00
H2       0.34409    0.03011    0.00214   1.00
H2       0.27484    0.03654    0.01346   1.00
C5       0.27943    -0.05329   0.02181   1.00
H2       0.25133    -0.06116   0.03634   1.00
H2       0.31938    -0.06745   0.02450   1.00
C5       0.23063    -0.09728   0.00492   1.00
H2       0.25828    -0.08932   -0.00967   1.00
H2       0.18935    -0.08483   0.00271   1.00
H2       0.20669    -0.15217   0.00897   1.00
C5       0.24271    0.18093    0.01754   1.00
C5       0.28116    0.05518    0.11324   1.00
H2       0.29533    0.22373    0.02027   1.00
H2       0.20606    0.19177    0.02575   1.00
H2       0.32242    0.05069    0.10541   1.00
H2       0.23198    0.00723    0.11016   1.00
H2       0.20736    -0.02033   0.15189   1.00
H2       0.30828    0.27883    -0.01469   1.00
H2       0.23018    0.27467    -0.00591   1.00
C2       0.48171    0.22547    0.00997   1.00
C3       0.46376    0.26925    0.02006   1.00
O2       0.48750    0.33481    0.01312   1.00
C3       0.44542    0.15515    0.01477   1.00
H1       0.45907    0.12057    0.00770   1.00
C3a      0.40953    0.24198    0.03413   1.00
H1       0.39389    0.27555    0.04086   1.00
C3b      0.39012    0.12787    0.02828   1.00
C4       0.37165    0.17129    0.03806   1.00
O_3      0.23592    0.11803    0.02356   1.00
C5       0.54202    0.38181    0.02533   1.00
H2       0.52588    0.37906    0.04147   1.00
C5       0.56457    0.45298    0.01691   1.00
H2       0.58562    0.37208    0.02473   1.00
H2       0.52859    0.46937    0.02249   1.00
H2       0.55856    0.44829    0.00012   1.00
C5       0.63853    0.50591    0.02267   1.00
H2       0.64495    0.50602    0.03938   1.00
H2       0.65111    0.55797    0.01776   1.00
H2       0.67597    0.49476    0.01502   1.00
C5       0.22784    0.17655    -0.00509   1.00
H2       0.17211    0.14208    -0.00742   1.00
H2       0.25421    0.15207    -0.01262   1.00
C5       0.25149    0.24719    -0.01446   1.00
H2       0.23354    0.24143    -0.03041   1.00
C5       0.72327    0.73007    0.12667   1.00
H2       0.76846    0.73995    0.13583   1.00
H2       0.68501    0.67546    0.12910   1.00
C5       0.69531    0.77603    0.13429   1.00
H2       0.66279    0.75359    0.14797   1.00
H2       0.66456    0.78216    0.12217   1.00
O_3      0.72906    0.66955    0.02339   1.00
C4       0.82888    0.68550    0.05176   1.00
C3c      0.79998    0.68112    0.07094   1.00
H1       0.75577    0.63395    0.07562   1.00
C3d      0.88706    0.74713    0.04608   1.00
C3       0.82676    0.73737    0.08422   1.00
O2       0.80103    0.72683    0.10363   1.00
C3       0.91306    0.80362    0.05911   1.00
H1       0.95626    0.85052    0.05380   1.00
C2       0.88400    0.80029    0.07847   1.00
C5       0.75695    0.71307    0.00646   1.00
H2       0.74204    0.68448    -0.00816   1.00
H2       0.81378    0.74258    0.00726   1.00
C5       0.72991    0.76243    0.00664   1.00
H2       0.74314    0.78963    0.02148   1.00
H2       0.67320    0.73245    0.00564   1.00
C5       0.75976    0.81340    -0.01094   1.00
H2       0.74714    0.78656    -0.02579   1.00
H2       0.81618    0.84498    -0.00956   1.00
H2       0.73826    0.84808    -0.01082   1.00
C5       0.96232    0.73332    0.02649   1.00
C5       0.74760    0.74194    0.10461   1.00
H2       0.93794    0.67807    0.03012   1.00
H2       1.00466    0.76238    0.03747   1.00
H2       0.70514    0.70739    0.09431   1.00
H2       0.76437    0.79556    0.09995   1.00
H2       0.73762    0.82742    0.13891   1.00
H2       0.99456    0.64971    0.00091   1.00
H2       1.06920    0.71777    0.01339   1.00
C2       0.74523    0.51876    0.00981   1.00
C3       0.79255    0.52374    0.02461   1.00
O2       0.82505    0.48623    0.02271   1.00
C3       0.72405    0.56791    0.00991   1.00
H1       0.68657    0.56451    -0.00088   1.00
C3a      0.81871    0.57798    0.03868   1.00
H1       0.85779    0.58330    0.04917   1.00
C3b      0.75179    0.62301    0.02350   1.00
C4       0.79962    0.62850    0.03801   1.00
O_3      0.91431    0.75571    0.02679   1.00
C5       0.79494    0.42920    0.03575   1.00
H2       0.79816    0.44511    0.05193   1.00
C5       0.83437    0.39112    0.03302   1.00
H2       0.74031    0.39470    0.03179   1.00
H2       0.88244    0.41795    0.04195   1.00
H2       0.84961    0.39581    0.01677   1.00
C5       0.79282    0.31550    0.03930   1.00
H2       0.77349    0.31162    0.05502   1.00
H2       0.82496    0.29108    0.03873   1.00
H2       0.74896    0.28590    0.02878   1.00
C5       0.99176    0.74489    0.00515   1.00
H2       1.02596    0.80068    0.00285   1.00
H2       0.94902    0.72808    -0.00587   1.00
C5       1.03028    0.70592    0.00139   1.00
H2       1.05695    0.72108    -0.01346   1.00
C5       0.13651    0.23746    0.06452   1.00
H2       0.13662    0.24810    0.08096   1.00
H2       0.15950    0.28781    0.05684   1.00
C5       0.18017    0.20345    0.06071   1.00
H2       0.23537    0.24240    0.06008   1.00
H2       0.16504    0.17484    0.04613   1.00
O_3      -0.16541   0.12999    0.01107   1.00
C4       -0.14292   0.17196    0.05190   1.00
C3c      -0.07218   0.20324    0.05490   1.00
H1       -0.03839   0.24955    0.04678   1.00
C3d      -0.18611   0.11219    0.06283   1.00
C3       -0.04388   0.17505    0.06809   1.00
O2       0.02487    0.21282    0.07213   1.00
C3       -0.15802   0.08328    0.07569   1.00
H1       -0.19303   0.03610    0.08321   1.00
C2       -0.08656   0.11384    0.07873   1.00
C5       -0.22447   0.06566    0.00841   1.00
H2       -0.26025   0.06731    -0.00289   1.00
H2       -0.25246   0.04603    0.02302   1.00
C5       -0.20189   0.01676    0.00076   1.00
H2       -0.16466   0.01657    0.01176   1.00
H2       -0.17458   0.03652    -0.01392   1.00
C5       -0.26305   -0.05534   -0.00187   1.00
H2       -0.30067   -0.05544   -0.01274   1.00
H2       -0.28894   -0.07604   0.01291   1.00
H2       -0.24572   -0.09000   -0.00790   1.00
C5       -0.28779   0.10262    0.07185   1.00
C5       0.06126    0.19405    0.05866   1.00
H2       -0.26972   0.15712    0.06840   1.00
H2       -0.27852   0.09795    0.08824   1.00
H2       0.05332    0.20493    0.04269   1.00
H2       0.04465    0.13856    0.05961   1.00
H2       0.17424    0.16781    0.07330   1.00
H2       -0.38919   0.14362    0.06763   1.00
H2       -0.39021   0.10872    0.09254   1.00
C2       -0.23156   0.25092    0.01028   1.00
C3       -0.21739   0.27538    0.03041   1.00
O2       -0.24661   0.31114    0.03835   1.00
C3       -0.21271   0.20276    0.00410   1.00
H1       -0.22125   0.18436    -0.01135   1.00
C3a      -0.18675   0.25024    0.04390   1.00
H1       -0.17980   0.26654    0.05956   1.00
C3b      -0.18425   0.17624    0.01773   1.00
C4       -0.17116   0.19982    0.03782   1.00
O_3      -0.25565   0.07663    0.05928   1.00
C5       -0.19884   0.38161    0.03855   1.00
H2       -0.15321   0.39293    0.04788   1.00
C5       -0.23462   0.41737    0.04783   1.00
H2       -0.18165   0.40113    0.02287   1.00
H2       -0.23479   0.41219    0.06463   1.00
H2       -0.28892   0.38888    0.04289   1.00
C5       -0.20131   0.49310    0.04172   1.00
H2       -0.14597   0.51952    0.04531   1.00
H2       -0.22502   0.51872    0.05008   1.00
H2       -0.20844   0.49885    0.02520   1.00
C5       -0.36406   0.06126    0.06770   1.00
H2       -0.38415   0.00953    0.07438   1.00
H2       -0.37173   0.05439    0.05099   1.00
C5       -0.40230   0.09611    0.07621   1.00
H2       -0.45822   0.06140    0.07480   1.00
C5       0.66735    1.30977    0.87023   1.00
H2       0.63204    1.31941    0.87947   1.00
H2       0.64974    1.30554    0.85429   1.00
C5       0.74090    1.37040    0.87249   1.00
H2       0.74935    1.41329    0.86237   1.00
H2       0.77833    1.35395    0.86860   1.00
O_3      0.60780    0.97723    0.86606   1.00
C4       0.52329    1.01872    0.88513   1.00
C3c      0.54605    1.08551    0.87837   1.00
H1       0.54168    1.09473    0.86250   1.00
C3d      0.52855    1.00769    0.90592   1.00
C3       0.57552    1.14133    0.89181   1.00
O2       0.58889    1.20386    0.88459   1.00
C3       0.55906    1.06331    0.91927   1.00
H1       0.56419    1.05262    0.93495   1.00
C2       0.58302    1.13127    0.91265   1.00
C5       0.62547    0.93879    0.87900   1.00
H2       0.61233    0.88847    0.87231   1.00
H2       0.59912    0.92950    0.89394   1.00
C5       0.70207    0.97949    0.88234   1.00
H2       0.71545    1.03051    0.88849   1.00
H2       0.72786    0.98791    0.86735   1.00
C5       0.72539    0.94230    0.89688   1.00
H2       0.71177    0.89112    0.89090   1.00
H2       0.70149    0.93598    0.91207   1.00
H2       0.78169    0.97210    0.89878   1.00
C5       0.44163    0.90716    0.91794   1.00
C5       0.65689    1.24101    0.87754   1.00
H2       0.40959    0.89929    0.90430   1.00
H2       0.42841    0.93392    0.92975   1.00
H2       0.66463    1.21327    0.86476   1.00
H2       0.69488    1.24878    0.88960   1.00
H2       0.75075    1.39114    0.88829   1.00
H2       0.32706    0.77227    0.91105   1.00
H2       0.32126    0.80889    0.93498   1.00
C2       0.44030    0.84790    0.84466   1.00
C3       0.39753    0.87005    0.85321   1.00
O2       0.32763    0.82824    0.85288   1.00
C3       0.51092    0.88541    0.84901   1.00
H1       0.54528    0.87083    0.84229   1.00
C3a      0.42554    0.92733    0.86617   1.00
H1       0.39157    0.94129    0.87351   1.00
C3b      0.53827    0.94102    0.86241   1.00
C4       0.49554    0.96234    0.87115   1.00
O_3      0.51168    0.94370    0.91308   1.00
C5       0.29878    0.84919    0.83750   1.00
H2       0.31053    0.90279    0.83995   1.00
C5       0.22151    0.80128    0.83835   1.00
H2       0.31813    0.84562    0.82227   1.00
H2       0.20052    0.81816    0.85091   1.00
H2       0.21237    0.74975    0.84259   1.00
C5       0.18564    0.79827    0.81818   1.00
H2       0.19968    0.85073    0.81337   1.00
H2       0.12923    0.76758    0.81989   1.00
H2       0.19978    0.77329    0.80598   1.00
C5       0.42577    0.83784    0.92607   1.00
H2       0.44858    0.84505    0.94148   1.00
H2       0.45179    0.81785    0.91621   1.00
C5       0.34858    0.78695    0.92666   1.00
H2       0.33863    0.73955    0.93460   1.00
C5       -0.05821   0.60382    0.96194   1.00
H2       -0.10538   0.60352    0.95716   1.00
H2       -0.01599   0.65699    0.95973   1.00
C5       -0.06403   0.58344    0.98457   1.00
H2       -0.05147   0.62786    0.99455   1.00
H2       -0.02858   0.56411    0.98800   1.00
O_3      0.09348    0.48824    0.89276   1.00
C4       -0.01939   0.50511    0.88488   1.00
C3c      -0.02267   0.54326    0.90119   1.00
H1       0.01827    0.59496    0.90354   1.00
C3d      -0.07374   0.43818    0.88192   1.00
C3       -0.07794   0.51530    0.91484   1.00
O2       -0.08169   0.55823    0.92890   1.00
C3       -0.12821   0.40974    0.89571   1.00
H1       -0.16753   0.35741    0.89323   1.00
C2       -0.13198   0.44735    0.91241   1.00
C5       0.08130    0.42260    0.88755   1.00
H2       0.12061    0.42461    0.87695   1.00
H2       0.03026    0.39171    0.88030   1.00
C5       0.08342    0.38766    0.90699   1.00
H2       0.04548    0.38737    0.91780   1.00
H2       0.13480    0.41860    0.91399   1.00
C5       0.06821    0.31476    0.90278   1.00
H2       0.10563    0.31463    0.89188   1.00
H2       0.01600    0.28317    0.89644   1.00
H2       0.07147    0.29057    0.91709   1.00
C5       -0.09641   0.40684    0.84869   1.00
C5       -0.05046   0.55585    0.94722   1.00
H2       -0.06532   0.46032    0.84328   1.00
H2       -0.15043   0.39456    0.85033   1.00
H2       0.00461    0.57360    0.94460   1.00
H2       -0.07429   0.50321    0.95371   1.00
H2       -0.11726   0.54334    0.98851   1.00
H2       -0.05734   0.42824    0.80645   1.00
H2       -0.14926   0.38233    0.81001   1.00
C2       0.15085    0.58457    0.84423   1.00
C3       0.09644    0.59676    0.84055   1.00
O2       0.08872    0.61873    0.82174   1.00
C3       0.14900    0.54877    0.86204   1.00
H1       0.19069    0.54015    0.86556   1.00
C3a      0.04125    0.57173    0.85427   1.00
H1       -0.00180   0.57810    0.85064   1.00
C3b      0.09304    0.52207    0.87530   1.00
C4       0.03851    0.53331    0.87146   1.00
O_3      -0.07056   0.39677    0.86703   1.00
C5       0.11211    0.68933    0.82220   1.00
H2       0.08327    0.70169    0.83354   1.00
C5       0.10080    0.70938    0.80099   1.00
H2       0.16744    0.71890    0.82602   1.00
H2       0.04618    0.69479    0.79953   1.00
H2       0.10977    0.67770    0.78985   1.00
C5       0.14739    0.78590    0.79641   1.00
H2       0.14171    0.81673    0.80856   1.00
H2       0.13375    0.79957    0.78161   1.00
H2       0.20205    0.79957    0.79527   1.00
C5       -0.09309   0.35948    0.83292   1.00
H2       -0.13302   0.30618    0.83655   1.00
H2       -0.04288   0.36199    0.83439   1.00
C5       -0.10213   0.37876    0.81121   1.00
H2       -0.10657   0.33918    0.80036   1.00
C5       0.42456    0.38204    0.96786   1.00
H2       0.41523    0.32993    0.96464   1.00
H2       0.37372    0.37823    0.96743   1.00
C5       0.45689    0.40480    0.98915   1.00
H2       0.41711    0.38306    1.00118   1.00
H2       0.48447    0.46143    0.99026   1.00
O_3      0.53378    0.61419    0.88804   1.00
C4       0.49473    0.47539    0.88490   1.00
C3c      0.46242    0.44542    0.90331   1.00
H1       0.41531    0.44371    0.90733   1.00
C3d      0.55557    0.47621    0.87982   1.00
C3       0.49059    0.41817    0.91691   1.00
O2       0.45200    0.38235    0.93339   1.00
C3       0.58442    0.45030    0.89350   1.00
H1       0.63239    0.45423    0.88927   1.00
C2       0.55281    0.42047    0.91228   1.00
C5       0.59850    0.65761    0.87946   1.00
H2       0.59688    0.69259    0.86786   1.00
H2       0.61959    0.62763    0.87216   1.00
C5       0.64576    0.70035    0.89650   1.00
H2       0.64590    0.66538    0.90837   1.00
H2       0.62456    0.73054    0.90356   1.00
C5       0.71821    0.74753    0.88859   1.00
H2       0.71839    0.78227    0.87663   1.00
H2       0.74032    0.71735    0.88218   1.00
H2       0.75164    0.77942    0.90117   1.00
C5       0.56799    0.46451    0.84598   1.00
C5       0.46874    0.42633    0.95029   1.00
H2       0.51347    0.44707    0.84278   1.00
H2       0.57357    0.41887    0.84862   1.00
H2       0.45703    0.46771    0.94697   1.00
H2       0.52402    0.45123    0.95438   1.00
H2       0.49316    0.38602    0.99240   1.00
H2       0.52947    0.46692    0.80435   1.00
H2       0.56578    0.41204    0.80814   1.00
C2       0.41573    0.56594    0.84400   1.00
C3       0.39268    0.49545    0.84284   1.00
O2       0.35858    0.45867    0.82584   1.00
C3       0.46244    0.60446    0.85951   1.00
H1       0.47970    0.65816    0.86114   1.00
C3a      0.41780    0.46570    0.85668   1.00
H1       0.40266    0.41252    0.85486   1.00
C3b      0.48898    0.57518    0.87283   1.00
C4       0.46683    0.50532    0.87146   1.00
O_3      0.59204    0.50967    0.86263   1.00
C5       0.28787    0.42049    0.82966   1.00
H2       0.27631    0.38411    0.84250   1.00
C5       0.25401    0.38048    0.81030   1.00
H2       0.26706    0.45460    0.83338   1.00
H2       0.26034    0.33482    0.80977   1.00
H2       0.28304    0.41316    0.79719   1.00
C5       0.17798    0.35927    0.80877   1.00
H2       0.15087    0.33135    0.82272   1.00
H2       0.15381    0.32554    0.79542   1.00
H2       0.17127    0.40459    0.80668   1.00
C5       0.61030    0.50303    0.82756   1.00
H2       0.66235    0.51007    0.82932   1.00
H2       0.61606    0.55485    0.82754   1.00
C5       0.57734    0.46590    0.80759   1.00
H2       0.61281    0.49153    0.79473   1.00
C5       0.63621    0.39184    0.29417   1.00
H2       0.65578    0.35862    0.28855   1.00
H2       0.63414    0.38682    0.31095   1.00
C5       0.68582    0.46655    0.28789   1.00
H2       0.72987    0.49098    0.29851   1.00
H2       0.65879    0.49626    0.28789   1.00
O_3      0.28548    0.26287    0.29140   1.00
C4       0.35221    0.18996    0.28158   1.00
C3c      0.41945    0.22994    0.28858   1.00
H1       0.42906    0.23924    0.30465   1.00
C3d      0.34087    0.17765    0.26060   1.00
C3       0.47502    0.25927    0.27505   1.00
O2       0.53971    0.29069    0.28313   1.00
C3       0.39598    0.20784    0.24706   1.00
H1       0.38456    0.19895    0.23106   1.00
C2       0.46422    0.24903    0.25386   1.00
C5       0.24052    0.25939    0.27600   1.00
H2       0.18783    0.24051    0.28180   1.00
H2       0.23784    0.22513    0.26343   1.00
C5       0.26771    0.33100    0.26771   1.00
H2       0.32106    0.35061    0.26243   1.00
H2       0.26957    0.36461    0.28034   1.00
C5       0.22297    0.33146    0.25032   1.00
H2       0.16952    0.31149    0.25545   1.00
H2       0.22299    0.29980    0.23741   1.00
H2       0.24278    0.38442    0.24476   1.00
C5       0.25200    0.07238    0.25276   1.00
C5       0.56403    0.36122    0.28552   1.00
H2       0.24951    0.05290    0.26841   1.00
H2       0.28547    0.06005    0.24339   1.00
H2       0.53066    0.36939    0.29625   1.00
H2       0.56489    0.38669    0.27089   1.00
H2       0.70772    0.46926    0.27249   1.00
H2       0.13012    -0.05173   0.26435   1.00
H2       0.17381    -0.06358   0.24297   1.00
C2       0.18055    0.10581    0.32174   1.00
C3       0.21548    0.06993    0.31788   1.00
O2       0.18582    0.00162    0.32264   1.00
C3       0.20572    0.17096    0.31287   1.00
H1       0.18120    0.20048    0.31595   1.00
C3a      0.27295    0.09871    0.30499   1.00
H1       0.29676    0.06894    0.30126   1.00
C3b      0.26155    0.19848    0.29955   1.00
C4       0.29558    0.16230    0.29547   1.00
O_3      0.27538    0.14299    0.25282   1.00
C5       0.21398    -0.00691   0.34074   1.00
H2       0.27018    0.01448    0.33928   1.00
C5       0.17945    -0.08365   0.34477   1.00
H2       0.20417    0.01855    0.35372   1.00
H2       0.20395    -0.10539   0.33498   1.00
H2       0.12554    -0.10685   0.33960   1.00
C5       0.18254    -0.10072   0.36725   1.00
H2       0.23628    -0.07284   0.37259   1.00
H2       0.16213    -0.15643   0.36929   1.00
H2       0.15078    -0.08693   0.37698   1.00
C5       0.18053    0.03657    0.24375   1.00
H2       0.18461    0.04700    0.22715   1.00
H2       0.15172    0.05992    0.25039   1.00
C5       0.14269    -0.04067   0.24792   1.00
H2       0.09384    -0.06600   0.23939   1.00
C5       0.59648    0.38129    0.28703   1.00
H2       0.57438    0.38618    0.27252   1.00
H2       0.57200    0.39576    0.29914   1.00
C5       0.57946    0.30655    0.28983   1.00
H2       0.52686    0.27452    0.29588   1.00
H2       0.61633    0.30434    0.30054   1.00
O_3      0.91459    0.64904    0.31528   1.00
C4       0.83828    0.64814    0.28145   1.00
C3c      0.77257    0.59198    0.28420   1.00
H1       0.74189    0.59124    0.29687   1.00
C3d      0.87703    0.64854    0.26468   1.00
C3       0.74578    0.53573    0.27092   1.00
O2       0.67828    0.48662    0.27311   1.00
C3       0.85102    0.59204    0.25165   1.00
H1       0.88355    0.59359    0.23942   1.00
C2       0.78495    0.53450    0.25434   1.00
C5       0.98192    0.66645    0.31015   1.00
H2       1.02061    0.71026    0.31925   1.00
H2       0.99238    0.67999    0.29376   1.00
C5       0.98960    0.60472    0.31445   1.00
H2       0.94970    0.56045    0.30579   1.00
H2       0.97968    0.59206    0.33088   1.00
C5       1.06094    0.61849    0.30858   1.00
H2       1.10106    0.66293    0.31707   1.00
H2       1.07000    0.62880    0.29204   1.00
H2       1.06609    0.57335    0.31225   1.00
C5       0.94505    0.75402    0.25108   1.00
C5       0.67267    0.43373    0.28581   1.00
H2       0.91807    0.77641    0.25934   1.00
H2       0.92115    0.73676    0.23583   1.00
H2       0.69310    0.45419    0.30121   1.00
H2       0.70170    0.40941    0.27985   1.00
H2       0.58105    0.28324    0.27504   1.00
H2       1.01156    0.90081    0.25378   1.00
H2       0.99534    0.87014    0.22776   1.00
C2       0.92550    0.81717    0.32259   1.00
C3       0.88439    0.81616    0.30634   1.00
O2       0.88550    0.87518    0.30045   1.00
C3       0.93403    0.75993    0.32541   1.00
H1       0.96373    0.75835    0.33801   1.00
C3a      0.85456    0.75957    0.29312   1.00
H1       0.82647    0.76128    0.28009   1.00
C3b      0.90611    0.70470    0.31186   1.00
C4       0.86613    0.70424    0.29554   1.00
O_3      0.94387    0.70016    0.26217   1.00
C5       0.82733    0.87572    0.30787   1.00
H2       0.77942    0.83121    0.30204   1.00
C5       0.83177    0.94187    0.30044   1.00
H2       0.82609    0.87448    0.32477   1.00
H2       0.81456    0.93478    0.28435   1.00
H2       0.88664    0.98203    0.30044   1.00
C5       0.78974    0.96401    0.31352   1.00
H2       0.73629    0.92133    0.31466   1.00
H2       0.78956    1.00889    0.30668   1.00
H2       0.81185    0.97970    0.32907   1.00
C5       1.01939    0.80886    0.24837   1.00
H2       1.04329    0.79024    0.23721   1.00
H2       1.04617    0.81545    0.26309   1.00
C5       1.02681    0.87722    0.24149   1.00
H2       1.08088    0.91372    0.23764   1.00
C5       0.77462    0.39723    0.28849   1.00
H2       0.80292    0.42161    0.27434   1.00
H2       0.81195    0.42124    0.30103   1.00
C5       0.71491    0.41144    0.29101   1.00
H2       0.73317    0.46306    0.29755   1.00
H2       0.67530    0.37259    0.30119   1.00
O_3      0.73216    0.08017    0.31422   1.00
C4       0.80990    0.16175    0.28146   1.00
C3c      0.81683    0.22621    0.28471   1.00
H1       0.84468    0.25589    0.29779   1.00
C3d      0.77424    0.12432    0.26417   1.00
C3       0.78734    0.25295    0.27142   1.00
O2       0.80326    0.31955    0.27419   1.00
C3       0.74372    0.15023    0.25112   1.00
H1       0.71482    0.11864    0.23846   1.00
C2       0.74959    0.21500    0.25431   1.00
C5       0.68449    0.01292    0.30829   1.00
H2       0.69011    -0.02590   0.31716   1.00
H2       0.68989    0.00471    0.29186   1.00
C5       0.61363    0.00231    0.31205   1.00
H2       0.60867    0.04229    0.30364   1.00
H2       0.60859    0.01000    0.32852   1.00
C5       0.55841    -0.06906   0.30531   1.00
H2       0.56335    -0.10924   0.31354   1.00
H2       0.56192    -0.07595   0.28873   1.00
H2       0.50700    -0.07641   0.30859   1.00
C5       0.81650    0.06064    0.25038   1.00
C5       0.75348    0.32180    0.28659   1.00
H2       0.86477    0.08793    0.25916   1.00
H2       0.82410    0.08611    0.23534   1.00
H2       0.75251    0.29995    0.30184   1.00
H2       0.70096    0.29207    0.28007   1.00
H2       0.69133    0.41071    0.27605   1.00
H2       0.90041    -0.00192   0.25318   1.00
H2       0.88806    0.01651    0.22719   1.00
C2       0.89175    0.07443    0.32253   1.00
C3       0.93287    0.11813    0.30686   1.00
O2       0.99252    0.11987    0.30136   1.00
C3       0.82480    0.06329    0.32484   1.00
H1       0.79265    0.03153    0.33701   1.00
C3a      0.90602    0.14794    0.29367   1.00
H1       0.93678    0.17812    0.28104   1.00
C3b      0.79751    0.09126    0.31130   1.00
C4       0.83809    0.13384    0.29554   1.00
O_3      0.76157    0.05853    0.26111   1.00
C5       1.04923    0.17820    0.30957   1.00
H2       1.05155    0.22598    0.30410   1.00
C5       1.11305    0.17700    0.30255   1.00
H2       1.04724    0.17742    0.32647   1.00
H2       1.12455    0.19615    0.28666   1.00
H2       1.10016    0.12267    0.30208   1.00
C5       1.17528    0.21905    0.31635   1.00
H2       1.18409    0.27171    0.31792   1.00
H2       1.22191    0.22169    0.30983   1.00
H2       1.16780    0.19529    0.33170   1.00
C5       0.79977    -0.01265   0.24703   1.00
H2       0.75867    -0.03634   0.23543   1.00
H2       0.77855    -0.04139   0.26142   1.00
C5       0.86286    -0.01686   0.24053   1.00
H2       0.84746    -0.07006   0.23619   1.00
C5       0.83538    0.63408    0.69467   1.00
H2       0.85401    0.59714    0.69544   1.00
H2       0.88167    0.68524    0.69337   1.00
C5       0.78956    0.61883    0.67574   1.00
H2       0.82104    0.64128    0.66187   1.00
H2       0.75524    0.64036    0.67776   1.00
O_3      0.75082    0.73081    0.78540   1.00
C4       0.80973    0.64741    0.78172   1.00
C3c      0.83185    0.65405    0.76152   1.00
H1       0.87170    0.70290    0.75607   1.00
C3d      0.75842    0.58309    0.78860   1.00
C3       0.80251    0.59847    0.74800   1.00
O2       0.83237    0.60667    0.72925   1.00
C3       0.72821    0.52796    0.77507   1.00
H1       0.68738    0.48023    0.78084   1.00
C2       0.74945    0.53397    0.75453   1.00
C5       0.69146    0.70101    0.79752   1.00
H2       0.69461    0.73499    0.81022   1.00
H2       0.68195    0.65163    0.80412   1.00
C5       0.63179    0.68803    0.78401   1.00
H2       0.62981    0.65565    0.77101   1.00
H2       0.64153    0.73773    0.77766   1.00
C5       0.56452    0.65329    0.79587   1.00
H2       0.56632    0.68513    0.80896   1.00
H2       0.55357    0.60259    0.80162   1.00
H2       0.52172    0.64558    0.78586   1.00
C5       0.77035    0.56092    0.82163   1.00
C5       0.79985    0.62758    0.71498   1.00
H2       0.82383    0.60386    0.82239   1.00
H2       0.77096    0.51352    0.81739   1.00
H2       0.80582    0.67775    0.71952   1.00
H2       0.74395    0.59052    0.71368   1.00
H2       0.75811    0.56274    0.67292   1.00
H2       0.83041    0.60661    0.86127   1.00
H2       0.80433    0.51780    0.85649   1.00
C2       0.89149    0.81624    0.82292   1.00
C3       0.92401    0.77731    0.82053   1.00
O2       0.97096    0.78156    0.83465   1.00
C3       0.83394    0.80010    0.81073   1.00
H1       0.80897    0.83003    0.81181   1.00
C3a      0.89765    0.72272    0.80659   1.00
H1       0.92076    0.69099    0.80577   1.00
C3b      0.80655    0.74444    0.79734   1.00
C4       0.83830    0.70513    0.79521   1.00
O_3      0.73127    0.57506    0.80788   1.00
C5       1.03781    0.82278    0.82721   1.00
H2       1.04589    0.80163    0.81285   1.00
C5       1.08652    0.82397    0.84351   1.00
H2       1.04865    0.87577    0.82430   1.00
H2       1.08845    0.77590    0.84240   1.00
H2       1.06359    0.82301    0.85855   1.00
C5       1.15878    0.88652    0.84183   1.00
H2       1.17871    0.88966    0.82623   1.00
H2       1.19408    0.88266    0.85280   1.00
H2       1.15887    0.93479    0.84548   1.00
C5       0.73795    0.55126    0.84249   1.00
H2       0.68923    0.50163    0.84266   1.00
H2       0.72458    0.59194    0.84476   1.00
C5       0.78579    0.55412    0.85954   1.00
H2       0.75806    0.53986    0.87423   1.00
C5       0.58263    0.43478    0.77358   1.00
H2       0.62151    0.41897    0.77539   1.00
H2       0.57656    0.45198    0.78883   1.00
C5       0.60847    0.49414    0.75817   1.00
H2       0.64413    0.54359    0.76557   1.00
H2       0.56464    0.49716    0.75172   1.00
O_3      0.24101    0.18064    0.77432   1.00
C4       0.35252    0.16114    0.78170   1.00
C3c      0.40901    0.22657    0.78457   1.00
H1       0.41019    0.25686    0.79740   1.00
C3d      0.35244    0.12212    0.76505   1.00
C3       0.46417    0.25431    0.77088   1.00
O2       0.52114    0.31499    0.77600   1.00
C3       0.40668    0.15010    0.75117   1.00
H1       0.40324    0.11920    0.73824   1.00
C2       0.46386    0.21647    0.75372   1.00
C5       0.19680    0.13653    0.75920   1.00
H2       0.14306    0.10644    0.76460   1.00
H2       0.21325    0.10009    0.75398   1.00
C5       0.19918    0.18025    0.74139   1.00
H2       0.25316    0.21174    0.73635   1.00
H2       0.18206    0.21597    0.74672   1.00
C5       0.15419    0.13595    0.72389   1.00
H2       0.10030    0.10401    0.72886   1.00
H2       0.17270    0.10193    0.71809   1.00
H2       0.15541    0.16885    0.71119   1.00
C5       0.30032    0.00789    0.77132   1.00
C5       0.51697    0.37004    0.76744   1.00
H2       0.30052    0.01530    0.78800   1.00
H2       0.34716    0.00617    0.76709   1.00
H2       0.47160    0.37118    0.77356   1.00
H2       0.51191    0.36645    0.75054   1.00
H2       0.63766    0.48746    0.74557   1.00
H2       0.21204    -0.10931   0.79583   1.00
H2       0.27455    -0.12066   0.78167   1.00
C2       0.17990    0.07704    0.82149   1.00
C3       0.23681    0.06972    0.82608   1.00
O2       0.23140    0.02219    0.84016   1.00
C3       0.18304    0.11536    0.80416   1.00
H1       0.14105    0.12340    0.80053   1.00
C3a      0.29414    0.09892    0.81313   1.00
H1       0.33566    0.08957    0.81621   1.00
C3b      0.23921    0.14247    0.79096   1.00
C4       0.29530    0.13426    0.79537   1.00
O_3      0.29586    0.05958    0.76069   1.00
C5       0.26082    0.05440    0.85874   1.00
H2       0.31592    0.09315    0.85685   1.00
C5       0.25383    -0.00128   0.87335   1.00
H2       0.23387    0.08006    0.86513   1.00
H2       0.29475    -0.01336   0.86987   1.00
H2       0.20448    -0.04819   0.86993   1.00
C5       0.25692    0.01891    0.89583   1.00
H2       0.30396    0.06859    0.89859   1.00
H2       0.25746    -0.02026   0.90591   1.00
H2       0.21126    0.02276    0.90021   1.00
C5       0.23788    -0.05986   0.76578   1.00
H2       0.24379    -0.07276   0.74989   1.00
H2       0.19246    -0.05302   0.76604   1.00
C5       0.22729    -0.11733   0.78042   1.00
H2       0.18583    -0.16710   0.77473   1.00
C5       0.57567    0.17554    0.77999   1.00
H2       0.59720    0.23165    0.78023   1.00
H2       0.56267    0.15846    0.79598   1.00
C5       0.51080    0.14213    0.76663   1.00
H2       0.46584    0.13612    0.77526   1.00
H2       0.50036    0.09111    0.76135   1.00
O_3      0.80337    0.05372    0.77770   1.00
C4       0.83894    0.19138    0.78168   1.00
C3c      0.77793    0.19080    0.78601   1.00
H1       0.75117    0.16831    0.80000   1.00
C3d      0.87352    0.22180    0.76350   1.00
C3       0.75003    0.21813    0.77235   1.00
O2       0.69487    0.22325    0.77872   1.00
C3       0.84520    0.24789    0.74969   1.00
H1       0.87230    0.26854    0.73562   1.00
C2       0.78317    0.24705    0.75373   1.00
C5       0.83893    0.04313    0.76183   1.00
H2       0.86638    0.01661    0.76713   1.00
H2       0.87691    0.09246    0.75473   1.00
C5       0.78691    -0.00117   0.74595   1.00
H2       0.75815    0.02443    0.74106   1.00
H2       0.74964    -0.05050   0.75314   1.00
C5       0.82168    -0.01323   0.72773   1.00
H2       0.85088    -0.03835   0.73253   1.00
H2       0.85714    0.03580    0.72011   1.00
H2       0.78273    -0.04694   0.71649   1.00
C5       0.98941    0.27552    0.76607   1.00
C5       0.63371    0.16473    0.77264   1.00
H2       0.98788    0.27460    0.78293   1.00
H2       0.99486    0.32477    0.76074   1.00
H2       0.62973    0.11820    0.77979   1.00
H2       0.63063    0.15692    0.75583   1.00
H2       0.51637    0.17461    0.75318   1.00
H2       1.11112    0.30035    0.78742   1.00
H2       1.12470    0.37156    0.77148   1.00
C2       0.92231    0.10226    0.82151   1.00
C3       0.93802    0.17035    0.82446   1.00
O2       0.99231    0.21374    0.83654   1.00
C3       0.87619    0.06393    0.80586   1.00
H1       0.86176    0.01116    0.80354   1.00
C3a      0.90910    0.19885    0.81155   1.00
H1       0.92465    0.25217    0.81327   1.00
C3b      0.84924    0.09308    0.79264   1.00
C4       0.86571    0.16107    0.79539   1.00
O_3      0.93095    0.21909    0.75781   1.00
C5       0.96882    0.22107    0.85568   1.00
H2       0.93379    0.24219    0.85420   1.00
C5       1.03165    0.27056    0.86798   1.00
H2       0.94138    0.17116    0.86372   1.00
H2       1.04755    0.32351    0.86309   1.00
H2       1.07390    0.26123    0.86372   1.00
C5       1.01924    0.26281    0.89107   1.00
H2       0.97360    0.26692    0.89485   1.00
H2       1.06397    0.30328    0.89941   1.00
H2       1.01175    0.21285    0.89662   1.00
C5       1.05118    0.27108    0.75912   1.00
H2       1.05943    0.28379    0.74267   1.00
H2       1.03906    0.21717    0.76069   1.00
C5       1.11548    0.31847    0.77145   1.00
H2       1.16076    0.31928    0.76463   1.00
C5       -0.05489   0.34589    0.46319   1.00
H2       -0.06778   0.38103    0.47125   1.00
H2       0.00038    0.36616    0.46587   1.00
C5       -0.09715   0.27329    0.47216   1.00
H2       -0.07336   0.26830    0.48635   1.00
H2       -0.10069   0.23482    0.46097   1.00
O_3      0.00401    0.39122    0.35922   1.00
C4       -0.01888   0.47670    0.38507   1.00
C3c      -0.01277   0.45773    0.40490   1.00
H1       0.03574    0.46510    0.41009   1.00
C3d      -0.08231   0.46758    0.37871   1.00
C3       -0.06896   0.42824    0.41821   1.00
O2       -0.05717   0.41873    0.43809   1.00
C3       -0.13867   0.43702    0.39179   1.00
H1       -0.18685   0.42883    0.38599   1.00
C2       -0.13357   0.41686    0.41181   1.00
C5       -0.03969   0.36929    0.34220   1.00
H2       -0.01095   0.38131    0.32763   1.00
H2       -0.07220   0.39347    0.34190   1.00
C5       -0.08519   0.29243    0.34379   1.00
H2       -0.11247   0.28029    0.35860   1.00
H2       -0.05224   0.26880    0.34388   1.00
C5       -0.13619   0.26454    0.32617   1.00
H2       -0.10930   0.27689    0.31132   1.00
H2       -0.17067   0.28631    0.32647   1.00
H2       -0.16799   0.20813    0.32734   1.00
C5       -0.07428   0.54969    0.35699   1.00
C5       -0.06784   0.35211    0.44070   1.00
H2       -0.01941   0.58417    0.36049   1.00
H2       -0.10541   0.56268    0.36721   1.00
H2       -0.03142   0.34482    0.43109   1.00
H2       -0.12058   0.31178    0.43636   1.00
H2       -0.14970   0.26180    0.47635   1.00
H2       0.00408    0.66132    0.32947   1.00
H2       -0.06693   0.66534    0.34087   1.00
C2       0.14801    0.55948    0.34317   1.00
C3       0.13963    0.60297    0.35674   1.00
O2       0.17337    0.67245    0.35347   1.00
C3       0.10227    0.48844    0.34452   1.00
H1       0.10838    0.45364    0.33470   1.00
C3a      0.08541    0.57512    0.37082   1.00
H1       0.07734    0.60940    0.38031   1.00
C3b      0.04712    0.46111    0.35809   1.00
C4       0.03822    0.50449    0.37135   1.00
O_3      -0.09232   0.48060    0.35887   1.00
C5       0.23025    0.70535    0.36648   1.00
H2       0.21454    0.69556    0.38275   1.00
C5       0.26405    0.78188    0.36218   1.00
H2       0.26745    0.68774    0.36351   1.00
H2       0.23466    0.80222    0.37018   1.00
H2       0.25861    0.78807    0.34564   1.00
C5       0.33972    0.82153    0.36851   1.00
H2       0.34469    0.81047    0.38464   1.00
H2       0.36088    0.87745    0.36674   1.00
H2       0.37148    0.80774    0.35878   1.00
C5       -0.08730   0.56127    0.33509   1.00
H2       -0.14341   0.53592    0.33266   1.00
H2       -0.06792   0.53522    0.32500   1.00
C5       -0.05258   0.63762    0.32978   1.00
H2       -0.06893   0.64426    0.31447   1.00
C5       0.39133    1.06216    0.46047   1.00
H2       0.43694    1.07245    0.46947   1.00
H2       0.35351    1.00744    0.46293   1.00
C5       0.36302    1.10761    0.46827   1.00
H2       0.33099    1.08496    0.48202   1.00
H2       0.33168    1.11339    0.45627   1.00
O_3      0.39451    1.00195    0.35705   1.00
C4       0.49556    1.01884    0.38509   1.00
C3c      0.46716    1.01420    0.40436   1.00
H1       0.42335    0.96683    0.40912   1.00
C3d      0.55323    1.08073    0.37930   1.00
C3       0.49393    1.07044    0.41765   1.00
O2       0.46879    1.05970    0.43713   1.00
C3       0.57920    1.13721    0.39234   1.00
H1       0.62198    1.18430    0.38696   1.00
C2       0.55064    1.13362    0.41180   1.00
C5       0.42157    1.04552    0.34010   1.00
H2       0.40641    1.01692    0.32549   1.00
H2       0.47840    1.07546    0.34075   1.00
C5       0.39391    1.09436    0.34048   1.00
H2       0.40740    1.12156    0.35531   1.00
H2       0.33719    1.06397    0.33963   1.00
C5       0.42284    1.14536    0.32288   1.00
H2       0.40996    1.11852    0.30802   1.00
H2       0.47927    1.17735    0.32410   1.00
H2       0.40089    1.17965    0.32314   1.00
C5       0.62838    1.06774    0.35941   1.00
C5       0.41498    1.07420    0.43833   1.00
H2       0.60454    1.01253    0.36303   1.00
H2       0.67098    1.09708    0.37029   1.00
H2       0.37233    1.03940    0.42813   1.00
H2       0.43114    1.12772    0.43372   1.00
H2       0.40516    1.15917    0.47283   1.00
H2       0.66081    0.98486    0.33357   1.00
H2       0.73553    1.05333    0.34590   1.00
C2       0.41184    0.85208    0.34314   1.00
C3       0.45982    0.85752    0.35778   1.00
O2       0.49279    0.82052    0.35570   1.00
C3       0.39007    0.90077    0.34341   1.00
H1       0.35210    0.89700    0.33275   1.00
C3a      0.48600    0.91176    0.37185   1.00
H1       0.52555    0.91744    0.38220   1.00
C3b      0.41782    0.95588    0.35700   1.00
C4       0.46629    0.96182    0.37134   1.00
O_3      0.57991    1.08953    0.35993   1.00
C5       0.46351    0.76349    0.36874   1.00
H2       0.46710    0.77936    0.38494   1.00
C5       0.50343    0.72599    0.36579   1.00
H2       0.40883    0.72860    0.36492   1.00
H2       0.55175    0.75317    0.37460   1.00
H2       0.51818    0.73081    0.34949   1.00
C5       0.46263    0.65034    0.37209   1.00
H2       0.44374    0.64629    0.38787   1.00
H2       0.49516    0.62637    0.37135   1.00
H2       0.41852    0.62044    0.36168   1.00
C5       0.65718    1.07953    0.33799   1.00
H2       0.69091    1.13539    0.33567   1.00
H2       0.61405    1.06238    0.32710   1.00
C5       0.69616    1.04115    0.33402   1.00
H2       0.72234    1.05650    0.31909   1.00
C5       0.67028    0.60837    0.46056   1.00
H2       0.63497    0.56268    0.46954   1.00
H2       0.65327    0.64610    0.46303   1.00
C5       0.74402    0.63676    0.46840   1.00
H2       0.75325    0.66868    0.48217   1.00
H2       0.78119    0.66822    0.45643   1.00
O_3      0.60751    0.60575    0.35713   1.00
C4       0.52329    0.50444    0.38509   1.00
C3c      0.54689    0.53274    0.40438   1.00
H1       0.54319    0.57645    0.40915   1.00
C3d      0.52768    0.44688    0.37928   1.00
C3       0.57636    0.50597    0.41767   1.00
O2       0.59060    0.53098    0.43716   1.00
C3       0.55819    0.42091    0.39232   1.00
H1       0.56263    0.37823    0.38692   1.00
C2       0.58300    0.44937    0.41180   1.00
C5       0.62421    0.57886    0.34017   1.00
H2       0.61081    0.59407    0.32556   1.00
H2       0.59739    0.52202    0.34079   1.00
C5       0.70072    0.60665    0.34058   1.00
H2       0.71438    0.59310    0.35542   1.00
H2       0.72696    0.66337    0.33977   1.00
C5       0.72299    0.57791    0.32299   1.00
H2       0.70908    0.59084    0.30813   1.00
H2       0.69864    0.52148    0.32418   1.00
H2       0.77924    0.59995    0.32328   1.00
C5       0.43973    0.37175    0.35933   1.00
C5       0.65886    0.58487    0.43842   1.00
H2       0.40825    0.39547    0.36295   1.00
H2       0.42648    0.32910    0.37019   1.00
H2       0.66669    0.62756    0.42823   1.00
H2       0.69632    0.56883    0.43381   1.00
H2       0.75350    0.59465    0.47295   1.00
H2       0.32454    0.33929    0.33342   1.00
H2       0.31836    0.26455    0.34572   1.00
C2       0.44026    0.58817    0.34314   1.00
C3       0.39768    0.54006    0.35774   1.00
O2       0.32772    0.50699    0.35562   1.00
C3       0.51074    0.61006    0.34345   1.00
H1       0.54497    0.64814    0.33281   1.00
C3a      0.42573    0.51387    0.37181   1.00
H1       0.39185    0.47422    0.38214   1.00
C3b      0.53810    0.58231    0.35704   1.00
C4       0.49554    0.53371    0.37134   1.00
O_3      0.50996    0.42031    0.35990   1.00
C5       0.29979    0.53609    0.36866   1.00
H2       0.31199    0.53243    0.38487   1.00
C5       0.22240    0.49607    0.36567   1.00
H2       0.31952    0.59078    0.36487   1.00
H2       0.20129    0.44770    0.37445   1.00
H2       0.21259    0.48142    0.34937   1.00
C5       0.18739    0.53672    0.37197   1.00
H2       0.20210    0.55551    0.38777   1.00
H2       0.13089    0.50410    0.37120   1.00
H2       0.20158    0.58087    0.36159   1.00
C5       0.42291    0.34309    0.33789   1.00
H2       0.44514    0.30945    0.33556   1.00
H2       0.44889    0.38630    0.32702   1.00
C5       0.34557    0.30401    0.33387   1.00
H2       0.33487    0.27793    0.31893   1.00
C5       0.30938    0.38386    0.29817   1.00
H2       0.35880    0.42922    0.29403   1.00
H2       0.31729    0.33941    0.29678   1.00
C5       0.29094    0.39115    0.32028   1.00
H2       0.31843    0.37600    0.33122   1.00
H2       0.23504    0.35843    0.32272   1.00
O_3      0.05682    0.24536    0.22411   1.00
C4       0.19122    0.35270    0.21823   1.00
C3c      0.22769    0.35332    0.23553   1.00
H1       0.23453    0.31026    0.23867   1.00
C3d      0.18373    0.40975    0.21426   1.00
C3       0.25497    0.40866    0.24916   1.00
O2       0.29699    0.40935    0.26435   1.00
C3       0.20970    0.46435    0.22801   1.00
H1       0.20061    0.50589    0.22470   1.00
C2       0.24607    0.46548    0.24569   1.00
C5       0.00752    0.26169    0.21738   1.00
H2       -0.02884   0.22360    0.20632   1.00
H2       0.03213    0.31294    0.21003   1.00
C5       -0.03240   0.26234    0.23581   1.00
H2       0.00416    0.29900    0.24710   1.00
H2       -0.05725   0.21077    0.24291   1.00
C5       -0.08574   0.28213    0.22992   1.00
H2       -0.12213   0.24601    0.21854   1.00
H2       -0.06079   0.33457    0.22348   1.00
H2       -0.11541   0.28087    0.24352   1.00
C5       0.18424    0.43345    0.18062   1.00
C5       0.25851    0.37965    0.28213   1.00
H2       0.20464    0.39967    0.17620   1.00
H2       0.22787    0.48634    0.18267   1.00
H2       0.21926    0.32536    0.27923   1.00
H2       0.23120    0.40641    0.28755   1.00
H2       0.30655    0.44527    0.32388   1.00
H2       0.17357    0.39388    0.13853   1.00
H2       0.22363    0.48566    0.14212   1.00
C2       0.10052    0.18277    0.17747   1.00
C3       0.16917    0.23423    0.17486   1.00
O2       0.20229    0.23990    0.15677   1.00
C3       0.06422    0.18728    0.19431   1.00
H1       0.01215    0.14780    0.19704   1.00
C3a      0.19916    0.28927    0.18862   1.00
H1       0.25050    0.33022    0.18576   1.00
C3b      0.09349    0.24318    0.20760   1.00
C4       0.16141    0.29483    0.20480   1.00
O_3      0.14393    0.40948    0.19830   1.00
C5       0.24579    0.21236    0.15876   1.00
H2       0.28497    0.23936    0.17078   1.00
C5       0.28129    0.22160    0.13829   1.00
H2       0.21623    0.15705    0.16260   1.00
H2       0.32399    0.27520    0.13719   1.00
H2       0.24403    0.21511    0.12623   1.00
C5       0.30761    0.17127    0.13510   1.00
H2       0.34043    0.17466    0.14809   1.00
H2       0.33801    0.18326    0.12087   1.00
H2       0.26455    0.11767    0.13357   1.00
C5       0.13878    0.43347    0.16361   1.00
H2       0.12806    0.47573    0.16638   1.00
H2       0.08903    0.38497    0.16447   1.00
C5       0.17130    0.44056    0.14259   1.00
H2       0.14024    0.44754    0.13080   1.00
C5       0.39639    0.57883    0.21862   1.00
H2       0.40401    0.56448    0.23410   1.00
H2       0.41494    0.55354    0.20802   1.00
C5       0.31962    0.55249    0.21510   1.00
H2       0.29243    0.49754    0.21086   1.00
H2       0.31293    0.58224    0.20278   1.00
O_3      0.64034    0.89630    0.18159   1.00
C4       0.64818    0.83840    0.21856   1.00
C3c      0.59706    0.76949    0.21769   1.00
H1       0.60032    0.73632    0.20650   1.00
C3d      0.64347    0.88053    0.23343   1.00
C3       0.54071    0.74253    0.23093   1.00
O2       0.49724    0.67308    0.23083   1.00
C3       0.58676    0.85416    0.24639   1.00
H1       0.58414    0.88898    0.25707   1.00
C2       0.53423    0.78477    0.24557   1.00
C5       0.65028    0.96264    0.18397   1.00
H2       0.69193    1.00056    0.17408   1.00
H2       0.66297    0.98018    0.20002   1.00
C5       0.58421    0.96022    0.17812   1.00
H2       0.54224    0.92094    0.18762   1.00
H2       0.57239    0.94327    0.16202   1.00
C5       0.58981    1.03005    0.18097   1.00
H2       0.63194    1.06962    0.17164   1.00
H2       0.59926    1.04595    0.19717   1.00
H2       0.54157    1.02766    0.17620   1.00
C5       0.74618    0.96196    0.24596   1.00
C5       0.44232    0.65636    0.21743   1.00
H2       0.77333    0.93681    0.23944   1.00
H2       0.73062    0.94340    0.26181   1.00
H2       0.46170    0.67208    0.20165   1.00
H2       0.41293    0.68229    0.22153   1.00
H2       0.29452    0.55652    0.22923   1.00
H2       0.89303    1.04117    0.24322   1.00
H2       0.86214    1.03202    0.26913   1.00
C2       0.81669    0.92517    0.17724   1.00
C3       0.82040    0.89317    0.19519   1.00
O2       0.88248    0.90397    0.20216   1.00
C3       0.75523    0.92466    0.17290   1.00
H1       0.75013    0.94717    0.15904   1.00
C3a      0.76407    0.86333    0.20850   1.00
H1       0.76910    0.84249    0.22273   1.00
C3b      0.70010    0.89688    0.18648   1.00
C4       0.70425    0.86603    0.20447   1.00
O_3      0.68966    0.94981    0.23393   1.00
C5       0.89040    0.84753    0.19746   1.00
H2       0.84921    0.79977    0.20451   1.00
C5       0.95957    0.86289    0.20596   1.00
H2       0.88957    0.83989    0.18074   1.00
H2       0.95390    0.85212    0.22254   1.00
H2       0.99519    0.91871    0.20427   1.00
C5       0.98841    0.82200    0.19534   1.00
H2       0.94997    0.76675    0.19578   1.00
H2       1.03569    0.83015    0.20303   1.00
H2       1.00254    0.83860    0.17924   1.00
C5       0.79484    1.03865    0.24637   1.00
H2       0.77200    1.06252    0.25598   1.00
H2       0.79877    1.05870    0.23070   1.00
C5       0.86598    1.05684    0.25424   1.00
H2       0.89776    1.11289    0.25634   1.00
C5       0.39724    0.77465    0.21151   1.00
H2       0.42162    0.80294    0.22567   1.00
H2       0.42126    0.81198    0.19897   1.00
C5       0.41147    0.71494    0.20899   1.00
H2       0.46309    0.73321    0.20245   1.00
H2       0.37262    0.67534    0.19882   1.00
O_3      0.08018    0.73217    0.18578   1.00
C4       0.16175    0.80990    0.21854   1.00
C3c      0.22621    0.81683    0.21529   1.00
H1       0.25590    0.84469    0.20222   1.00
C3d      0.12432    0.77423    0.23583   1.00
C3       0.25295    0.78735    0.22858   1.00
O2       0.31955    0.80327    0.22581   1.00
C3       0.15023    0.74371    0.24888   1.00
H1       0.11864    0.71481    0.26154   1.00
C2       0.21500    0.74959    0.24569   1.00
C5       0.01293    0.68449    0.19171   1.00
H2       -0.02588   0.69011    0.18284   1.00
H2       0.00472    0.68989    0.20814   1.00
C5       0.00233    0.61363    0.18794   1.00
H2       0.04231    0.60868    0.19635   1.00
H2       0.01002    0.60860    0.17147   1.00
C5       -0.06904   0.55840    0.19468   1.00
H2       -0.10922   0.56334    0.18645   1.00
H2       -0.07593   0.56191    0.21127   1.00
H2       -0.07638   0.50699    0.19140   1.00
C5       0.06062    0.81648    0.24962   1.00
C5       0.32182    0.75350    0.21341   1.00
H2       0.08791    0.86476    0.24084   1.00
H2       0.08609    0.82408    0.26465   1.00
H2       0.29997    0.75253    0.19816   1.00
H2       0.29209    0.70097    0.21993   1.00
H2       0.41073    0.69135    0.22395   1.00
H2       -0.00195   0.90038    0.24682   1.00
H2       0.01648    0.88803    0.27280   1.00
C2       0.07443    0.89175    0.17747   1.00
C3       0.11812    0.93287    0.19315   1.00
O2       0.11986    0.99251    0.19864   1.00
C3       0.06330    0.82480    0.17516   1.00
H1       0.03154    0.79266    0.16299   1.00
C3a      0.14793    0.90601    0.20634   1.00
H1       0.17811    0.93678    0.21896   1.00
C3b      0.09126    0.79752    0.18870   1.00
C4       0.13384    0.83809    0.20446   1.00
O_3      0.05853    0.76155    0.23889   1.00
C5       0.17818    1.04923    0.19043   1.00
H2       0.22597    1.05155    0.19591   1.00
C5       0.17698    1.11304    0.19746   1.00
H2       0.17741    1.04725    0.17353   1.00
H2       0.19612    1.12454    0.21334   1.00
H2       0.12264    1.10015    0.19792   1.00
C5       0.21902    1.17528    0.18366   1.00
H2       0.27169    1.18409    0.18208   1.00
H2       0.22166    1.22190    0.19017   1.00
H2       0.19527    1.16780    0.16831   1.00
C5       -0.01267   0.79974    0.25296   1.00
H2       -0.03636   0.75864    0.26457   1.00
H2       -0.04140   0.77852    0.23858   1.00
C5       -0.01688   0.86283    0.25947   1.00
H2       -0.07009   0.84742    0.26380   1.00
C5       1.03832    0.60170    0.53055   1.00
H2       1.07924    0.65523    0.53309   1.00
H2       0.98977    0.60269    0.53041   1.00
C5       1.04964    0.57648    0.50988   1.00
H2       1.02991    0.59432    0.49722   1.00
H2       1.02307    0.51976    0.50968   1.00
O_3      0.92486    0.38387    0.61388   1.00
C4       1.01930    0.52464    0.61509   1.00
C3c      1.01530    0.55026    0.59605   1.00
H1       0.96856    0.54852    0.59154   1.00
C3d      1.08100    0.52828    0.62080   1.00
C3       1.07077    0.57750    0.58248   1.00
O2       1.06596    0.60908    0.56523   1.00
C3       1.13589    0.55418    0.60716   1.00
H1       1.18133    0.55371    0.61192   1.00
C2       1.13245    0.57962    0.58776   1.00
C5       0.94921    0.34461    0.62358   1.00
H2       0.91353    0.31065    0.63553   1.00
H2       0.99991    0.37794    0.63076   1.00
C5       0.95646    0.30051    0.60753   1.00
H2       0.99059    0.33432    0.59531   1.00
H2       0.90544    0.26701    0.60060   1.00
C5       0.98511    0.25774    0.61670   1.00
H2       0.95152    0.22419    0.62901   1.00
H2       1.03705    0.29116    0.62300   1.00
H2       0.98863    0.22474    0.60484   1.00
C5       1.10486    0.54701    0.65458   1.00
C5       1.04065    0.56193    0.54902   1.00
H2       1.06572    0.56226    0.65702   1.00
H2       1.15488    0.59373    0.65150   1.00
H2       0.98846    0.51933    0.55266   1.00
H2       1.07335    0.53891    0.54579   1.00
H2       1.10514    0.59732    0.50680   1.00
H2       1.06263    0.54961    0.69575   1.00
H2       1.15319    0.60744    0.69175   1.00
C2       0.85000    0.43422    0.65608   1.00
C3       0.89466    0.50545    0.65623   1.00
O2       0.89515    0.54420    0.67244   1.00
C3       0.86077    0.39469    0.64150   1.00
H1       0.82645    0.34028    0.64065   1.00
C3a      0.94943    0.53504    0.64236   1.00
H1       0.98542    0.58907    0.64343   1.00
C3b      0.91654    0.42397    0.62817   1.00
C4       0.96151    0.49463    0.62854   1.00
O_3      1.08591    0.49912    0.63870   1.00
C5       0.85954    0.57856    0.66748   1.00
H2       0.88303    0.61297    0.65415   1.00
C5       0.86339    0.62106    0.68601   1.00
H2       0.80510    0.54166    0.66392   1.00
H2       0.91418    0.66842    0.68611   1.00
H2       0.86145    0.59154    0.69976   1.00
C5       0.80580    0.63863    0.68653   1.00
H2       0.80512    0.66324    0.67201   1.00
H2       0.81358    0.67420    0.69923   1.00
H2       0.75496    0.59207    0.68904   1.00
C5       1.11086    0.51321    0.67382   1.00
H2       1.15754    0.50874    0.67268   1.00
H2       1.06652    0.46034    0.67446   1.00
C5       1.11284    0.55291    0.69301   1.00
H2       1.12435    0.53096    0.70649   1.00
C5       0.57635    -0.04287   0.53228   1.00
H2       0.58542    -0.08579   0.53554   1.00
H2       0.62727    0.00403    0.53276   1.00
C5       0.54434    -0.05232   0.51094   1.00
H2       0.58429    -0.03440   0.49896   1.00
H2       0.51698    -0.02307   0.50976   1.00
O_3      0.46680    0.08082    0.61182   1.00
C4       0.50526    -0.01933   0.61510   1.00
C3c      0.53777    -0.01714   0.59674   1.00
H1       0.58504    0.02816    0.59277   1.00
C3d      0.44422    -0.07921   0.62012   1.00
C3       0.50961    -0.07255   0.58314   1.00
O2       0.54836    -0.06994   0.56672   1.00
C3       0.41538    -0.13397   0.60644   1.00
H1       0.36726    -0.17788   0.61063   1.00
C2       0.44719    -0.13232   0.58771   1.00
C5       0.40201    0.05977    0.62030   1.00
H2       0.40363    0.09644    0.63188   1.00
H2       0.38063    0.00867    0.62761   1.00
C5       0.35508    0.05545    0.60319   1.00
H2       0.35495    0.02027    0.59135   1.00
H2       0.37657    0.10687    0.59613   1.00
C5       0.28257    0.03045    0.61100   1.00
H2       0.28238    0.06509    0.62293   1.00
H2       0.26018    -0.02185   0.61742   1.00
H2       0.24939    0.02907    0.59837   1.00
C5       0.43124    -0.10333   0.65397   1.00
C5       0.53202    -0.04257   0.54977   1.00
H2       0.48575    -0.06642   0.65723   1.00
H2       0.42547    -0.15465   0.65136   1.00
H2       0.54390    0.01060    0.55307   1.00
H2       0.47678    -0.07277   0.54562   1.00
H2       0.50796    -0.10732   0.50767   1.00
H2       0.46927    -0.06249   0.69563   1.00
H2       0.43268    -0.15372   0.69186   1.00
C2       0.58428    0.15024    0.65599   1.00
C3       0.60704    0.10258    0.65723   1.00
O2       0.64081    0.09975    0.67429   1.00
C3       0.53786    0.14225    0.64041   1.00
H1       0.52082    0.17884    0.63873   1.00
C3a      0.58192    0.04770    0.64340   1.00
H1       0.59683    0.00951    0.64527   1.00
C3b      0.51131    0.08642    0.62709   1.00
C4       0.53317    0.03850    0.62854   1.00
O_3      0.40758    -0.08207   0.63726   1.00
C5       0.71156    0.13203    0.67056   1.00
H2       0.72316    0.10710    0.65776   1.00
C5       0.74504    0.12571    0.68998   1.00
H2       0.73263    0.18697    0.66683   1.00
H2       0.73848    0.07362    0.69054   1.00
H2       0.71590    0.12949    0.70304   1.00
C5       0.82113    0.18031    0.69160   1.00
H2       0.84837    0.17937    0.67769   1.00
H2       0.84501    0.17062    0.70500   1.00
H2       0.82802    0.23241    0.69365   1.00
C5       0.38875    -0.10695   0.67232   1.00
H2       0.33663    -0.15182   0.67051   1.00
H2       0.38321    -0.06075   0.67229   1.00
C5       0.42133    -0.11127   0.69235   1.00
H2       0.38571    -0.12098   0.70516   1.00
C5       0.38136    0.42407    0.53222   1.00
H2       0.32931    0.41488    0.53546   1.00
H2       0.37743    0.37319    0.53267   1.00
C5       0.40401    0.45623    0.51090   1.00
H2       0.38212    0.41636    0.49890   1.00
H2       0.46063    0.48369    0.50975   1.00
O_3      0.61409    0.53347    0.61189   1.00
C4       0.47539    0.49473    0.61510   1.00
C3c      0.44524    0.46232    0.59672   1.00
H1       0.44339    0.41512    0.59272   1.00
C3d      0.47640    0.55568    0.62015   1.00
C3       0.41799    0.49048    0.58312   1.00
O2       0.38200    0.45181    0.56667   1.00
C3       0.45048    0.58453    0.60647   1.00
H1       0.45456    0.63258    0.61067   1.00
C2       0.42047    0.55281    0.58772   1.00
C5       0.65769    0.59823    0.62041   1.00
H2       0.69270    0.59660    0.63200   1.00
H2       0.62784    0.61947    0.62772   1.00
C5       0.70036    0.64531    0.60333   1.00
H2       0.66535    0.64544    0.59148   1.00
H2       0.73041    0.62395    0.59627   1.00
C5       0.74771    0.71779    0.61119   1.00
H2       0.78250    0.71798    0.62313   1.00
H2       0.71767    0.74005    0.61761   1.00
H2       0.77955    0.75109    0.59858   1.00
C5       0.46500    0.56840    0.65399   1.00
C5       0.42583    0.46834    0.54974   1.00
H2       0.44747    0.51389    0.65723   1.00
H2       0.41940    0.57408    0.65137   1.00
H2       0.46717    0.45653    0.55305   1.00
H2       0.45081    0.52359    0.54562   1.00
H2       0.38532    0.49256    0.50764   1.00
H2       0.46762    0.53015    0.69564   1.00
H2       0.41287    0.56661    0.69186   1.00
C2       0.56594    0.41572    0.65599   1.00
C3       0.49549    0.39283    0.65719   1.00
O2       0.45881    0.35890    0.67423   1.00
C3       0.60442    0.46228    0.64045   1.00
H1       0.65808    0.47942    0.63879   1.00
C3a      0.46574    0.41795    0.64336   1.00
H1       0.41260    0.40293    0.64521   1.00
C3b      0.57514    0.48883    0.62713   1.00
C4       0.50532    0.46683    0.62854   1.00
O_3      0.51003    0.59224    0.63731   1.00
C5       0.42047    0.28817    0.67045   1.00
H2       0.38401    0.27660    0.65764   1.00
C5       0.38058    0.25452    0.68985   1.00
H2       0.45446    0.26723    0.66673   1.00
H2       0.33498    0.26098    0.69039   1.00
H2       0.41338    0.28361    0.70294   1.00
C5       0.35922    0.17846    0.69143   1.00
H2       0.33116    0.15127    0.67750   1.00
H2       0.32557    0.15444    0.70480   1.00
H2       0.40448    0.17165    0.69350   1.00
C5       0.50371    0.61081    0.67237   1.00
H2       0.51085    0.66290    0.67059   1.00
H2       0.55548    0.61645    0.67237   1.00
C5       0.46669    0.57805    0.69238   1.00
H2       0.49247    0.61360    0.70521   1.00
C5       0.30411    -0.30831   0.12936   1.00
H2       0.26286    -0.31404   0.11903   1.00
H2       0.28825    -0.30237   0.14482   1.00
C5       0.31070    -0.37304   0.12824   1.00
H2       0.27156    -0.41436   0.13793   1.00
H2       0.36230    -0.36114   0.13341   1.00
O_3      0.59426    0.01244    0.13683   1.00
C4       0.47559    -0.01866   0.11485   1.00
C3c      0.42575    -0.08407   0.12122   1.00
H1       0.40836    -0.09217   0.13678   1.00
C3d      0.49684    -0.00899   0.09444   1.00
C3       0.39835    -0.14000   0.10781   1.00
O2       0.34401    -0.20043   0.11445   1.00
C3       0.47061    -0.06483   0.08115   1.00
H1       0.49022    -0.05540   0.06583   1.00
C2       0.42073    -0.13146   0.08740   1.00
C5       0.65404    0.04693    0.12500   1.00
H2       0.69266    0.09595    0.13206   1.00
H2       0.64232    0.05816    0.10951   1.00
C5       0.68456    0.00075    0.12320   1.00
H2       0.64532    -0.04895   0.11667   1.00
H2       0.69665    -0.00961   0.13873   1.00
C5       0.74874    0.03346    0.10990   1.00
H2       0.78797    0.08334    0.11626   1.00
H2       0.73629    0.04165    0.09419   1.00
H2       0.77117    -0.00036   0.10913   1.00
C5       0.52260    0.09467    0.08155   1.00
C5       0.36773    -0.24227   0.12281   1.00
H2       0.49746    0.10546    0.09437   1.00
H2       0.48490    0.07051    0.06901   1.00
H2       0.40106    -0.21663   0.13618   1.00
H2       0.39823    -0.25354   0.11173   1.00
H2       0.30196    -0.39383   0.11246   1.00
H2       0.55381    0.23382    0.08725   1.00
H2       0.51559    0.19945    0.06268   1.00
C2       0.56639    0.15176    0.15543   1.00
C3       0.50488    0.13494    0.14539   1.00
O2       0.48253    0.18147    0.14440   1.00
C3       0.59483    0.10918    0.15250   1.00
H1       0.64092    0.11965    0.16038   1.00
C3a      0.47446    0.07778    0.13240   1.00
H1       0.42952    0.06786    0.12393   1.00
C3b      0.56564    0.05367    0.13907   1.00
C4       0.50507    0.03763    0.12886   1.00
O_3      0.54941    0.05318    0.08779   1.00
C5       0.42988    0.16468    0.15862   1.00
H2       0.38556    0.11274    0.15570   1.00
C5       0.40722    0.21769    0.15634   1.00
H2       0.44837    0.16631    0.17439   1.00
H2       0.37269    0.20365    0.14298   1.00
H2       0.45339    0.26733    0.15263   1.00
C5       0.37189    0.22434    0.17549   1.00
H2       0.32925    0.17335    0.17989   1.00
H2       0.35112    0.25898    0.17268   1.00
H2       0.40852    0.24673    0.18842   1.00
C5       0.58190    0.16177    0.07404   1.00
H2       0.59942    0.15250    0.05921   1.00
H2       0.62505    0.17822    0.08489   1.00
C5       0.56237    0.21760    0.07206   1.00
H2       0.60430    0.26337    0.06458   1.00
C5       1.07935    0.37620    0.04594   1.00
H2       1.08462    0.41610    0.03511   1.00
H2       1.02634    0.33322    0.04413   1.00
C5       1.13117    0.35309    0.04046   1.00
H2       1.11157    0.31533    0.02786   1.00
H2       1.14101    0.32959    0.05392   1.00
O_3      1.01316    0.41095    0.14701   1.00
C4       1.01876    0.49548    0.11488   1.00
C3c      1.01785    0.46130    0.09701   1.00
H1       0.97342    0.41290    0.09336   1.00
C3d      1.07676    0.55896    0.11921   1.00
C3       1.07419    0.48825    0.08376   1.00
O2       1.06644    0.45620    0.06541   1.00
C3       1.13345    0.58530    0.10625   1.00
H1       1.17771    0.63296    0.11056   1.00
C2       1.13368    0.55104    0.08822   1.00
C5       1.05544    0.44812    0.16344   1.00
H2       1.02682    0.43601    0.17803   1.00
H2       1.07989    0.50416    0.16077   1.00
C5       1.11060    0.42891    0.16536   1.00
H2       1.13796    0.43921    0.15060   1.00
H2       1.08565    0.37299    0.16821   1.00
C5       1.16050    0.46903    0.18250   1.00
H2       1.13345    0.45935    0.19727   1.00
H2       1.18719    0.52475    0.17933   1.00
H2       1.19955    0.45322    0.18397   1.00
C5       1.05308    0.63413    0.13515   1.00
C5       1.08863    0.40807    0.06702   1.00
H2       0.99779    0.60352    0.13153   1.00
H2       1.07891    0.67305    0.12300   1.00
H2       1.05703    0.36813    0.07839   1.00
H2       1.14307    0.43177    0.07194   1.00
H2       1.18043    0.39694    0.03505   1.00
H2       0.96079    0.66304    0.15755   1.00
H2       1.02396    0.73613    0.14327   1.00
C2       0.85219    0.41256    0.15690   1.00
C3       0.85215    0.45185    0.14028   1.00
O2       0.80880    0.47815    0.14005   1.00
C3       0.90645    0.39880    0.15864   1.00
H1       0.90706    0.36743    0.17090   1.00
C3a      0.90647    0.47769    0.12624   1.00
H1       0.90767    0.51089    0.11426   1.00
C3b      0.96148    0.42639    0.14503   1.00
C4       0.96190    0.46630    0.12869   1.00
O_3      1.08228    0.59215    0.13734   1.00
C5       0.75248    0.43868    0.12731   1.00
H2       0.76914    0.43784    0.11142   1.00
C5       0.70770    0.47166    0.12760   1.00
H2       0.72246    0.38519    0.13292   1.00
H2       0.73049    0.51635    0.11719   1.00
H2       0.71058    0.49214    0.14316   1.00
C5       0.63302    0.42171    0.12170   1.00
H2       0.63146    0.39771    0.10686   1.00
H2       0.60352    0.44881    0.12042   1.00
H2       0.60679    0.38115    0.13345   1.00
C5       1.06145    0.67044    0.15528   1.00
H2       1.11617    0.70974    0.15716   1.00
H2       1.04856    0.63264    0.16773   1.00
C5       1.01583    0.70283    0.15661   1.00
H2       1.02842    0.73470    0.17050   1.00
C5       0.60805    0.66967    0.03933   1.00
H2       0.56226    0.63436    0.03039   1.00
H2       0.64567    0.65254    0.03685   1.00
C5       0.63652    0.74338    0.03145   1.00
H2       0.66832    0.75244    0.01766   1.00
H2       0.66811    0.78060    0.04339   1.00
O_3      0.60602    0.60758    0.14280   1.00
C4       0.50444    0.52329    0.11491   1.00
C3c      0.53262    0.54672    0.09560   1.00
H1       0.57624    0.54288    0.09081   1.00
C3d      0.44700    0.52786    0.12074   1.00
C3       0.50585    0.57619    0.08231   1.00
O2       0.53073    0.59025    0.06280   1.00
C3       0.42104    0.55837    0.10770   1.00
H1       0.37845    0.56295    0.11311   1.00
C2       0.44938    0.58300    0.08820   1.00
C5       0.57933    0.62447    0.15976   1.00
H2       0.59459    0.61113    0.17437   1.00
H2       0.52249    0.59775    0.15918   1.00
C5       0.60726    0.70100    0.15930   1.00
H2       0.59365    0.71460    0.14446   1.00
H2       0.66398    0.72715    0.16008   1.00
C5       0.57873    0.72349    0.17690   1.00
H2       0.59172    0.70964    0.19176   1.00
H2       0.52230    0.69923    0.17574   1.00
H2       0.60087    0.77975    0.17658   1.00
C5       0.37189    0.44012    0.14076   1.00
C5       0.58471    0.65846    0.06149   1.00
H2       0.39549    0.40852    0.13715   1.00
H2       0.32918    0.42687    0.12993   1.00
H2       0.62744    0.66627    0.07166   1.00
H2       0.56881    0.69602    0.06609   1.00
H2       0.59444    0.75293    0.02691   1.00
H2       0.33939    0.32506    0.16673   1.00
H2       0.26463    0.31895    0.15446   1.00
C2       0.58818    0.44027    0.15686   1.00
C3       0.53993    0.39765    0.14229   1.00
O2       0.50675    0.32770    0.14446   1.00
C3       0.61021    0.51078    0.15651   1.00
H1       0.64840    0.54504    0.16712   1.00
C3a      0.51373    0.42569    0.12822   1.00
H1       0.47398    0.39179    0.11793   1.00
C3b      0.58245    0.53814    0.14292   1.00
C4       0.53371    0.49554    0.12866   1.00
O_3      0.42056    0.51031    0.14015   1.00
C5       0.53566    0.29958    0.13142   1.00
H2       0.53191    0.31169    0.11521   1.00
C5       0.49553    0.22221    0.13446   1.00
H2       0.59036    0.31923    0.13517   1.00
H2       0.44711    0.20112    0.12571   1.00
H2       0.48099    0.21254    0.15077   1.00
C5       0.53600    0.18702    0.12815   1.00
H2       0.55470    0.20160    0.11234   1.00
H2       0.50330    0.13054    0.12896   1.00
H2       0.58022    0.20121    0.13851   1.00
C5       0.34338    0.42350    0.16222   1.00
H2       0.30985    0.44585    0.16455   1.00
H2       0.38668    0.44949    0.17306   1.00
C5       0.30420    0.34619    0.16629   1.00
H2       0.27824    0.33565    0.18124   1.00
C5       0.35710    0.65390    0.70359   1.00
H2       0.34885    0.60974    0.71300   1.00
H2       0.36188    0.64037    0.68772   1.00
C5       0.29500    0.66457    0.70569   1.00
H2       0.25259    0.62892    0.69562   1.00
H2       0.30986    0.71794    0.70161   1.00
O_3      0.68580    0.93342    0.69898   1.00
C4       0.64796    0.80888    0.71847   1.00
C3c      0.58157    0.76308    0.71176   1.00
H1       0.57268    0.74888    0.69593   1.00
C3d      0.65860    0.82596    0.73922   1.00
C3       0.52571    0.73573    0.72520   1.00
O2       0.46384    0.68503    0.71806   1.00
C3       0.60290    0.79983    0.75256   1.00
H1       0.61321    0.81628    0.76819   1.00
C2       0.53533    0.75404    0.74599   1.00
C5       0.72294    0.99030    0.71176   1.00
H2       0.77282    1.02833    0.70502   1.00
H2       0.73297    0.97438    0.72679   1.00
C5       0.68030    1.02427    0.71487   1.00
H2       0.62972    0.98573    0.72108   1.00
H2       0.67115    1.04051    0.69980   1.00
C5       0.71601    1.08548    0.72924   1.00
H2       0.76676    1.12394    0.72321   1.00
H2       0.72304    1.06896    0.74452   1.00
H2       0.68479    1.11054    0.73098   1.00
C5       0.76035    0.84323    0.75138   1.00
C5       0.42500    0.71380    0.71081   1.00
H2       0.76919    0.81930    0.73786   1.00
H2       0.73451    0.80344    0.76330   1.00
H2       0.45198    0.74917    0.69794   1.00
H2       0.41604    0.74363    0.72272   1.00
H2       0.27428    0.65370    0.72149   1.00
H2       0.89682    0.86764    0.74467   1.00
H2       0.86103    0.82551    0.76871   1.00
C2       0.81864    0.89968    0.67799   1.00
C3       0.79837    0.83545    0.68676   1.00
O2       0.84185    0.80930    0.68662   1.00
C3       0.77935    0.93105    0.68213   1.00
H1       0.79248    0.97938    0.67523   1.00
C3a      0.74112    0.80515    0.69972   1.00
H1       0.72859    0.75784    0.70723   1.00
C3b      0.72377    0.90182    0.69554   1.00
C4       0.70431    0.83847    0.70449   1.00
O_3      0.72203    0.87471    0.74631   1.00
C5       0.82228    0.75912    0.67141   1.00
H2       0.76922    0.71625    0.67392   1.00
C5       0.87201    0.73198    0.67247   1.00
H2       0.82512    0.78124    0.65609   1.00
H2       0.85616    0.69463    0.68515   1.00
H2       0.92294    0.77554    0.67664   1.00
C5       0.87623    0.69912    0.65244   1.00
H2       0.82422    0.65941    0.64768   1.00
H2       0.90832    0.67498    0.65431   1.00
H2       0.90028    0.73799    0.64013   1.00
C5       0.82898    0.89842    0.75943   1.00
H2       0.82110    0.91401    0.77476   1.00
H2       0.84772    0.94396    0.74942   1.00
C5       0.88164    0.87438    0.76023   1.00
H2       0.92853    0.91307    0.76811   1.00
C5       0.42826    0.59453    0.72200   1.00
H2       0.40851    0.63055    0.72123   1.00
H2       0.44271    0.58987    0.70623   1.00
C5       0.49146    0.62414    0.73604   1.00
H2       0.53800    0.66209    0.72778   1.00
H2       0.49953    0.58243    0.74173   1.00
O_3      0.19159    0.24718    0.72345   1.00
C4       0.16109    0.35247    0.71832   1.00
C3c      0.22366    0.41170    0.71443   1.00
H1       0.25168    0.41504    0.70079   1.00
C3d      0.12492    0.34955    0.73603   1.00
C3       0.25151    0.46691    0.72810   1.00
O2       0.30859    0.52621    0.72210   1.00
C3       0.15313    0.40390    0.74986   1.00
H1       0.12469    0.39836    0.76359   1.00
C2       0.21671    0.46388    0.74627   1.00
C5       0.15315    0.20154    0.73912   1.00
H2       0.12482    0.14761    0.73380   1.00
H2       0.11554    0.21453    0.74561   1.00
C5       0.20257    0.20746    0.75566   1.00
H2       0.23225    0.26173    0.76058   1.00
H2       0.23946    0.19377    0.74906   1.00
C5       0.16460    0.16109    0.77369   1.00
H2       0.13447    0.10687    0.76885   1.00
H2       0.12948    0.17625    0.78072   1.00
H2       0.20165    0.16498    0.78542   1.00
C5       0.00930    0.29060    0.73227   1.00
C5       0.36792    0.52661    0.72900   1.00
H2       0.01280    0.29116    0.71544   1.00
H2       0.00501    0.33541    0.73724   1.00
H2       0.37104    0.48313    0.72219   1.00
H2       0.36880    0.52169    0.74586   1.00
H2       0.48546    0.65175    0.74922   1.00
H2       -0.11114   0.19651    0.70989   1.00
H2       -0.12412   0.25572    0.72526   1.00
C2       0.07747    0.17993    0.67850   1.00
C3       0.06442    0.23386    0.67499   1.00
O2       0.01221    0.22479    0.66224   1.00
C3       0.12114    0.18615    0.69472   1.00
H1       0.13356    0.14656    0.69748   1.00
C3a      0.09343    0.29125    0.68791   1.00
H1       0.07984    0.33029    0.68573   1.00
C3b      0.14815    0.24227    0.70793   1.00
C4       0.13428    0.29535    0.70462   1.00
O_3      0.06571    0.29048    0.74132   1.00
C5       0.03863    0.25528    0.64324   1.00
H2       0.07492    0.31114    0.64483   1.00
C5       -0.02200   0.24405    0.63017   1.00
H2       0.06561    0.23137    0.63573   1.00
H2       -0.03675   0.28238    0.63460   1.00
H2       -0.06586   0.19312    0.63418   1.00
C5       -0.00698   0.24831    0.60724   1.00
H2       0.04007    0.29724    0.60377   1.00
H2       -0.05000   0.24564    0.59832   1.00
H2       -0.00060   0.20478    0.60208   1.00
C5       -0.05455   0.22551    0.73880   1.00
H2       -0.06438   0.23037    0.75510   1.00
H2       -0.04407   0.18250    0.73767   1.00
C5       -0.11676   0.21070    0.72570   1.00
H2       -0.16360   0.16713    0.73218   1.00
C5       0.17549    0.57564    0.72002   1.00
H2       0.23160    0.59716    0.71977   1.00
H2       0.15839    0.56263    0.70403   1.00
C5       0.14208    0.51078    0.73338   1.00
H2       0.13605    0.46582    0.72476   1.00
H2       0.09106    0.50036    0.73867   1.00
O_3      0.05373    0.80340    0.72231   1.00
C4       0.19138    0.83894    0.71832   1.00
C3c      0.19078    0.77792    0.71399   1.00
H1       0.16828    0.75115    0.70000   1.00
C3d      0.22182    0.87353    0.73650   1.00
C3       0.21812    0.75002    0.72765   1.00
O2       0.22321    0.69485    0.72129   1.00
C3       0.24791    0.84521    0.75031   1.00
H1       0.26857    0.87232    0.76437   1.00
C2       0.24705    0.78317    0.74627   1.00
C5       0.04316    0.83898    0.73818   1.00
H2       0.01664    0.86643    0.73287   1.00
H2       0.09250    0.87695    0.74527   1.00
C5       -0.00114   0.78697    0.75406   1.00
H2       0.02446    0.75820    0.75895   1.00
H2       -0.05048   0.74970    0.74687   1.00
C5       -0.01318   0.82176    0.77228   1.00
H2       -0.03829   0.85097    0.76748   1.00
H2       0.03586    0.85722    0.77990   1.00
H2       -0.04688   0.78282    0.78352   1.00
C5       0.27555    0.98942    0.73392   1.00
C5       0.16469    0.63370    0.72737   1.00
H2       0.27462    0.98788    0.71706   1.00
H2       0.32480    0.99487    0.73925   1.00
H2       0.11817    0.62972    0.72022   1.00
H2       0.15690    0.63063    0.74418   1.00
H2       0.17456    0.51635    0.74683   1.00
H2       0.30039    1.11112    0.71256   1.00
H2       0.37161    1.12470    0.72850   1.00
C2       0.10226    0.92232    0.67849   1.00
C3       0.17034    0.93800    0.67554   1.00
O2       0.21373    0.99229    0.66345   1.00
C3       0.06394    0.87620    0.69415   1.00
H1       0.01117    0.86179    0.69646   1.00
C3a      0.19885    0.90909    0.68844   1.00
H1       0.25216    0.92462    0.68673   1.00
C3b      0.09308    0.84925    0.70736   1.00
C4       0.16107    0.86571    0.70461   1.00
O_3      0.21912    0.93097    0.74219   1.00
C5       0.22105    0.96878    0.64431   1.00
H2       0.24216    0.93374    0.64579   1.00
C5       0.27054    1.03159    0.63201   1.00
H2       0.17113    0.94133    0.63627   1.00
H2       0.32349    1.04749    0.63690   1.00
H2       0.26122    1.07385    0.63627   1.00
C5       0.26277    1.01917    0.60892   1.00
H2       0.26686    0.97352    0.60514   1.00
H2       0.30323    1.06389    0.60057   1.00
H2       0.21281    1.01168    0.60337   1.00
C5       0.27114    1.05121    0.74087   1.00
H2       0.28385    1.05946    0.75732   1.00
H2       0.21723    1.03909    0.73930   1.00
C5       0.31852    1.11549    0.72853   1.00
H2       0.31935    1.16077    0.73535   1.00
