data_IRMOF10_interpen_symm_ligand2lp_label_d.

_audit_creation_method             'generated by an auxiliary program of Tobunporous'

_symmetry_space_group_name_H-M     'P 1'
_symmetry_Int_Tables_number        1
_symmetry_cell_setting             triclinic

_cell_length_a                    22.6523
_cell_length_b                    22.6523
_cell_length_c                    65.9502
_cell_angle_alpha                 90.0000
_cell_angle_beta                  90.0000
_cell_angle_gamma                 120.0000

loop_
_atom_site_label
_atom_site_fract_x
_atom_site_fract_y
_atom_site_fract_z
_atom_site_occupancy
O1       0.00000    -0.00000   0.62500   1.00
Zn      0.00000    -0.00000   0.59589   1.00
Zn      0.94848    1.04288    0.63392   1.00
Zn      0.09439    0.05152    0.63392   1.00
Zn      -0.04288   0.90561    0.63392   1.00
O2       0.93860    0.02610    0.58587   1.00
O2       0.08750    0.06140    0.58587   1.00
O2       -0.02610   0.91250    0.58587   1.00
O2       0.91305    0.07161    0.61181   1.00
O2       0.00462    0.12022    0.65110   1.00
O2       0.87413    0.98074    0.65071   1.00
O2       0.15856    0.08695    0.61181   1.00
O2       0.10660    0.12587    0.65071   1.00
O2       0.11559    0.99538    0.65110   1.00
O2       -0.07161   0.84144    0.61181   1.00
O2       0.87978    0.88441    0.65110   1.00
O2       0.01926    0.89340    0.65071   1.00
C1       0.91390    0.06020    0.59358   1.00
C1       0.14630    0.08610    0.59358   1.00
C1       -0.06020   0.85370    0.59358   1.00
C1       0.06663    0.14397    0.65673   1.00
C1       0.85603    0.92267    0.65673   1.00
C1       0.07733    0.93337    0.65673   1.00
O1       -0.00000   0.00000    0.87500   1.00
Zn      -0.00000   0.00000    0.90411   1.00
Zn      1.04288    0.94848    0.86608   1.00
Zn      0.05152    0.09439    0.86608   1.00
Zn      0.90561    -0.04288   0.86608   1.00
O2       0.02610    0.93860    0.91413   1.00
O2       0.06140    0.08750    0.91413   1.00
O2       0.91250    -0.02610   0.91413   1.00
O2       0.07161    0.91305    0.88819   1.00
O2       0.12022    0.00462    0.84890   1.00
O2       0.98074    0.87413    0.84929   1.00
O2       0.08695    0.15856    0.88819   1.00
O2       0.12587    0.10660    0.84929   1.00
O2       0.99538    0.11559    0.84890   1.00
O2       0.84144    -0.07161   0.88819   1.00
O2       0.88441    0.87978    0.84890   1.00
O2       0.89340    0.01926    0.84929   1.00
C1       0.06020    0.91390    0.90642   1.00
C1       0.08610    0.14630    0.90642   1.00
C1       0.85370    -0.06020   0.90642   1.00
C1       0.14397    0.06663    0.84327   1.00
C1       0.92267    0.85603    0.84327   1.00
C1       0.93337    0.07733    0.84327   1.00
O1       0.00000    0.00000    0.37500   1.00
Zn      0.00000    0.00000    0.40411   1.00
Zn      0.05152    -0.04288   0.36608   1.00
Zn      0.90561    0.94848    0.36608   1.00
Zn      1.04288    0.09439    0.36608   1.00
O2       0.06140    -0.02610   0.41413   1.00
O2       0.91250    0.93860    0.41413   1.00
O2       0.02610    0.08750    0.41413   1.00
O2       0.08695    -0.07161   0.38819   1.00
O2       0.99538    0.87978    0.34890   1.00
O2       0.12587    0.01926    0.34929   1.00
O2       0.84144    0.91305    0.38819   1.00
O2       0.89340    0.87413    0.34929   1.00
O2       0.88441    0.00462    0.34890   1.00
O2       0.07161    0.15856    0.38819   1.00
O2       0.12022    0.11559    0.34890   1.00
O2       0.98074    0.10660    0.34929   1.00
C1       0.08610    -0.06020   0.40642   1.00
C1       0.85370    0.91390    0.40642   1.00
C1       0.06020    0.14630    0.40642   1.00
C1       0.93337    0.85603    0.34327   1.00
C1       0.14397    0.07733    0.34327   1.00
C1       0.92267    0.06663    0.34327   1.00
O1       0.00000    0.00000    0.12500   1.00
Zn      0.00000    0.00000    0.09589   1.00
Zn      -0.04288   0.05152    0.13392   1.00
Zn      0.94848    0.90561    0.13392   1.00
Zn      0.09439    1.04288    0.13392   1.00
O2       -0.02610   0.06140    0.08587   1.00
O2       0.93860    0.91250    0.08587   1.00
O2       0.08750    0.02610    0.08587   1.00
O2       -0.07161   0.08695    0.11181   1.00
O2       0.87978    0.99538    0.15110   1.00
O2       0.01926    0.12587    0.15071   1.00
O2       0.91305    0.84144    0.11181   1.00
O2       0.87413    0.89340    0.15071   1.00
O2       0.00462    0.88441    0.15110   1.00
O2       0.15856    0.07161    0.11181   1.00
O2       0.11559    0.12022    0.15110   1.00
O2       0.10660    0.98074    0.15071   1.00
C1       -0.06020   0.08610    0.09358   1.00
C1       0.91390    0.85370    0.09358   1.00
C1       0.14630    0.06020    0.09358   1.00
C1       0.85603    0.93337    0.15673   1.00
C1       0.07733    0.14397    0.15673   1.00
C1       0.06663    0.92267    0.15673   1.00
O1       0.66667    0.33333    0.95833   1.00
Zn      0.66667    0.33333    0.92922   1.00
Zn      0.61515    0.37621    0.96725   1.00
Zn      0.76106    0.38485    0.96725   1.00
Zn      -0.37621   0.23894    0.96725   1.00
O2       0.60527    0.35943    0.91920   1.00
O2       0.75417    0.39473    0.91920   1.00
O2       0.64057    0.24583    0.91920   1.00
O2       0.57972    0.40494    0.94514   1.00
O2       0.67129    0.45355    0.98443   1.00
O2       0.54080    0.31407    0.98404   1.00
O2       0.82523    0.42028    0.94514   1.00
O2       0.77327    0.45920    0.98404   1.00
O2       -0.21774   0.32871    0.98443   1.00
O2       0.59506    0.17477    0.94514   1.00
O2       0.54645    0.21774    0.98443   1.00
O2       -0.31407   0.22673    0.98404   1.00
C1       0.58057    0.39353    0.92691   1.00
C1       0.81297    0.41943    0.92691   1.00
C1       0.60647    0.18703    0.92691   1.00
C1       0.73330    0.47730    0.99006   1.00
C1       0.52270    0.25600    0.99006   1.00
C1       -0.25600   0.26670    0.99006   1.00
O1       0.66667    0.33333    0.20833   1.00
Zn      0.66667    0.33333    0.23744   1.00
Zn      0.70954    0.28182    0.19942   1.00
Zn      0.71818    0.42773    0.19942   1.00
Zn      0.57227    0.29046    0.19942   1.00
O2       0.69277    0.27193    0.24746   1.00
O2       0.72807    0.42083    0.24746   1.00
O2       0.57917    0.30723    0.24746   1.00
O2       0.73828    0.24638    0.22152   1.00
O2       0.78688    0.33796    0.18224   1.00
O2       0.64740    0.20747    0.18263   1.00
O2       0.75362    0.49189    0.22152   1.00
O2       0.79253    0.43994    0.18263   1.00
O2       0.66204    0.44893    0.18224   1.00
O2       0.50811    0.26172    0.22152   1.00
O2       0.55107    0.21312    0.18224   1.00
O2       0.56006    0.35260    0.18263   1.00
C1       0.72687    0.24723    0.23975   1.00
C1       0.75277    0.47963    0.23975   1.00
C1       0.52037    0.27313    0.23975   1.00
C1       0.81063    0.39997    0.17661   1.00
C1       0.58933    0.18937    0.17661   1.00
C1       0.60003    0.41067    0.17661   1.00
O1       0.66667    0.33333    0.70833   1.00
Zn      0.66667    0.33333    0.73744   1.00
Zn      0.71818    0.29046    0.69942   1.00
Zn      0.57227    0.28182    0.69942   1.00
Zn      0.70954    0.42773    0.69942   1.00
O2       0.72807    0.30723    0.74746   1.00
O2       0.57917    0.27193    0.74746   1.00
O2       0.69277    0.42083    0.74746   1.00
O2       0.75362    0.26172    0.72152   1.00
O2       0.66204    0.21312    0.68224   1.00
O2       0.79253    0.35260    0.68263   1.00
O2       0.50811    0.24638    0.72152   1.00
O2       0.56006    0.20747    0.68263   1.00
O2       0.55107    0.33796    0.68224   1.00
O2       0.73828    0.49189    0.72152   1.00
O2       0.78688    0.44893    0.68224   1.00
O2       0.64740    0.43994    0.68263   1.00
C1       0.75277    0.27313    0.73975   1.00
C1       0.52037    0.24723    0.73975   1.00
C1       0.72687    0.47963    0.73975   1.00
C1       0.60003    0.18937    0.67661   1.00
C1       0.81063    0.41067    0.67661   1.00
C1       0.58933    0.39997    0.67661   1.00
O1       0.66667    0.33333    0.45833   1.00
Zn      0.66667    0.33333    0.42922   1.00
Zn      -0.37621   0.38485    0.46725   1.00
Zn      0.61515    0.23894    0.46725   1.00
Zn      0.76106    0.37621    0.46725   1.00
O2       0.64057    0.39473    0.41920   1.00
O2       0.60527    0.24583    0.41920   1.00
O2       0.75417    0.35943    0.41920   1.00
O2       0.59506    0.42028    0.44514   1.00
O2       0.54645    0.32871    0.48443   1.00
O2       -0.31407   0.45920    0.48404   1.00
O2       0.57972    0.17477    0.44514   1.00
O2       0.54080    0.22673    0.48404   1.00
O2       0.67129    0.21774    0.48443   1.00
O2       0.82523    0.40494    0.44514   1.00
O2       -0.21774   0.45355    0.48443   1.00
O2       0.77327    0.31407    0.48404   1.00
C1       0.60647    0.41943    0.42691   1.00
C1       0.58057    0.18703    0.42691   1.00
C1       0.81297    0.39353    0.42691   1.00
C1       0.52270    0.26670    0.49006   1.00
C1       -0.25600   0.47730    0.49006   1.00
C1       0.73330    0.25600    0.49006   1.00
O1       0.33333    0.66667    0.29167   1.00
Zn      0.33333    0.66667    0.26256   1.00
Zn      0.28182    0.70954    0.30058   1.00
Zn      0.42773    0.71818    0.30058   1.00
Zn      0.29046    0.57227    0.30058   1.00
O2       0.27193    0.69277    0.25254   1.00
O2       0.42083    0.72807    0.25254   1.00
O2       0.30723    0.57917    0.25254   1.00
O2       0.24638    0.73828    0.27848   1.00
O2       0.33796    0.78688    0.31776   1.00
O2       0.20747    0.64740    0.31737   1.00
O2       0.49189    0.75362    0.27848   1.00
O2       0.43994    0.79253    0.31737   1.00
O2       0.44893    0.66204    0.31776   1.00
O2       0.26172    0.50811    0.27848   1.00
O2       0.21312    0.55107    0.31776   1.00
O2       0.35260    0.56006    0.31737   1.00
C1       0.24723    0.72687    0.26025   1.00
C1       0.47963    0.75277    0.26025   1.00
C1       0.27313    0.52037    0.26025   1.00
C1       0.39997    0.81063    0.32339   1.00
C1       0.18937    0.58933    0.32339   1.00
C1       0.41067    0.60003    0.32339   1.00
O1       0.33333    0.66667    0.54167   1.00
Zn      0.33333    0.66667    0.57078   1.00
Zn      0.37621    0.61515    0.53275   1.00
Zn      0.38485    0.76106    0.53275   1.00
Zn      0.23894    -0.37621   0.53275   1.00
O2       0.35943    0.60527    0.58080   1.00
O2       0.39473    0.75417    0.58080   1.00
O2       0.24583    0.64057    0.58080   1.00
O2       0.40494    0.57972    0.55486   1.00
O2       0.45355    0.67129    0.51557   1.00
O2       0.31407    0.54080    0.51596   1.00
O2       0.42028    0.82523    0.55486   1.00
O2       0.45920    0.77327    0.51596   1.00
O2       0.32871    -0.21774   0.51557   1.00
O2       0.17477    0.59506    0.55486   1.00
O2       0.21774    0.54645    0.51557   1.00
O2       0.22673    -0.31407   0.51596   1.00
C1       0.39353    0.58057    0.57309   1.00
C1       0.41943    0.81297    0.57309   1.00
C1       0.18703    0.60647    0.57309   1.00
C1       0.47730    0.73330    0.50994   1.00
C1       0.25600    0.52270    0.50994   1.00
C1       0.26670    -0.25600   0.50994   1.00
O1       0.33333    0.66667    0.04167   1.00
Zn      0.33333    0.66667    0.07078   1.00
Zn      0.38485    -0.37621   0.03275   1.00
Zn      0.23894    0.61515    0.03275   1.00
Zn      0.37621    0.76106    0.03275   1.00
O2       0.39473    0.64057    0.08080   1.00
O2       0.24583    0.60527    0.08080   1.00
O2       0.35943    0.75417    0.08080   1.00
O2       0.42028    0.59506    0.05486   1.00
O2       0.32871    0.54645    0.01557   1.00
O2       0.45920    -0.31407   0.01596   1.00
O2       0.17477    0.57972    0.05486   1.00
O2       0.22673    0.54080    0.01596   1.00
O2       0.21774    0.67129    0.01557   1.00
O2       0.40494    0.82523    0.05486   1.00
O2       0.45355    -0.21774   0.01557   1.00
O2       0.31407    0.77327    0.01596   1.00
C1       0.41943    0.60647    0.07309   1.00
C1       0.18703    0.58057    0.07309   1.00
C1       0.39353    0.81297    0.07309   1.00
C1       0.26670    0.52270    0.00994   1.00
C1       0.47730    -0.25600   0.00994   1.00
C1       0.25600    0.73330    0.00994   1.00
O1       0.33333    0.66667    0.79167   1.00
Zn      0.33333    0.66667    0.76256   1.00
Zn      0.29046    0.71818    0.80058   1.00
Zn      0.28182    0.57227    0.80058   1.00
Zn      0.42773    0.70954    0.80058   1.00
O2       0.30723    0.72807    0.75254   1.00
O2       0.27193    0.57917    0.75254   1.00
O2       0.42083    0.69277    0.75254   1.00
O2       0.26172    0.75362    0.77848   1.00
O2       0.21312    0.66204    0.81776   1.00
O2       0.35260    0.79253    0.81737   1.00
O2       0.24638    0.50811    0.77848   1.00
O2       0.20747    0.56006    0.81737   1.00
O2       0.33796    0.55107    0.81776   1.00
O2       0.49189    0.73828    0.77848   1.00
O2       0.44893    0.78688    0.81776   1.00
O2       0.43994    0.64740    0.81737   1.00
C1       0.27313    0.75277    0.76025   1.00
C1       0.24723    0.52037    0.76025   1.00
C1       0.47963    0.72687    0.76025   1.00
C1       0.18937    0.60003    0.82339   1.00
C1       0.41067    0.81063    0.82339   1.00
C1       0.39997    0.58933    0.82339   1.00
C2       -0.22956   0.52095    0.51012   1.00
C3       -0.26449   0.52548    0.52565   1.00
H1       -0.30915   0.49064    0.52764   1.00
C3       -0.16393   0.57146    0.50774   1.00
H1       -0.13824   0.56880    0.49716   1.00
C3a      -0.23710   0.57962    0.53890   1.00
H1       -0.26146   0.58271    0.54980   1.00
C3b      -0.13421   0.62669    0.52071   1.00
H1       -0.08890   0.66059    0.51920   1.00
C6       -0.17043   0.63070    0.53676   1.00
C6       -0.13866   0.68921    0.55094   1.00
C3c      -0.10778   0.68508    0.56858   1.00
H1       -0.10220   0.64763    0.57083   1.00
C3d      -0.14235   0.74701    0.54612   1.00
H1       -0.16328   0.75123    0.53452   1.00
C3       -0.08140   0.73949    0.58198   1.00
H1       -0.05961   0.73736    0.59371   1.00
C3       -0.11537   0.80062    0.56102   1.00
H1       -0.11789   0.83964    0.55853   1.00
C2       -0.08630   0.79640    0.57845   1.00
C2       0.47905    0.24949    0.51012   1.00
C3       0.47452    0.21003    0.52565   1.00
H1       0.50936    0.20021    0.52764   1.00
C3       0.42854    0.26461    0.50774   1.00
H1       0.43120    0.29296    0.49716   1.00
C3a      0.42038    0.18328    0.53890   1.00
H1       0.41729    0.15582    0.54980   1.00
C3b      0.37331    0.23910    0.52071   1.00
H1       0.33941    0.25051    0.51920   1.00
C6       0.36930    0.19887    0.53676   1.00
C6       0.31079    0.17213    0.55094   1.00
C3c      0.31492    0.20714    0.56858   1.00
H1       0.35237    0.25017    0.57083   1.00
C3d      0.25299    0.11064    0.54612   1.00
H1       0.24877    0.08549    0.53452   1.00
C3       0.26051    0.17911    0.58198   1.00
H1       0.26264    0.20303    0.59371   1.00
C3       0.19938    0.08401    0.56102   1.00
H1       0.16036    0.04247    0.55853   1.00
C2       0.20360    0.11730    0.57845   1.00
C2       0.75051    0.22956    0.51012   1.00
C3       0.78997    0.26449    0.52565   1.00
H1       0.79979    0.30915    0.52764   1.00
C3       0.73539    0.16393    0.50774   1.00
H1       0.70704    0.13824    0.49716   1.00
C3a      0.81672    0.23710    0.53890   1.00
H1       0.84418    0.26146    0.54980   1.00
C3b      0.76090    0.13421    0.52071   1.00
H1       0.74949    0.08890    0.51920   1.00
C6       0.80113    0.17043    0.53676   1.00
C6       0.82787    0.13866    0.55094   1.00
C3c      0.79286    0.10778    0.56858   1.00
H1       0.74983    0.10220    0.57083   1.00
C3d      0.88936    0.14235    0.54612   1.00
H1       0.91451    0.16328    0.53452   1.00
C3       0.82089    0.08140    0.58198   1.00
H1       0.79697    0.05961    0.59371   1.00
C3       0.91599    0.11537    0.56102   1.00
H1       0.95753    0.11789    0.55853   1.00
C2       0.88270    0.08630    0.57845   1.00
C2       0.52095    -0.22956   0.98988   1.00
C3       0.52548    -0.26449   0.97435   1.00
H1       0.49064    -0.30915   0.97236   1.00
C3       0.57146    -0.16393   0.99226   1.00
H1       0.56880    -0.13824   0.00284   1.00
C3a      0.57962    -0.23710   0.96110   1.00
H1       0.58271    -0.26146   0.95020   1.00
C3b      0.62669    -0.13421   0.97929   1.00
H1       0.66059    -0.08890   0.98080   1.00
C6       0.63070    -0.17043   0.96324   1.00
C6       0.68921    -0.13866   0.94906   1.00
C3c      0.68508    -0.10778   0.93142   1.00
H1       0.64763    -0.10220   0.92917   1.00
C3d      0.74701    -0.14235   0.95388   1.00
H1       0.75123    -0.16328   0.96548   1.00
C3       0.73949    -0.08140   0.91802   1.00
H1       0.73736    -0.05961   0.90629   1.00
C3       0.80062    -0.11537   0.93898   1.00
H1       0.83964    -0.11789   0.94147   1.00
C2       0.79640    -0.08630   0.92155   1.00
C2       0.24949    0.47905    0.98988   1.00
C3       0.21003    0.47452    0.97435   1.00
H1       0.20021    0.50936    0.97236   1.00
C3       0.26461    0.42854    0.99226   1.00
H1       0.29296    0.43120    0.00284   1.00
C3a      0.18328    0.42038    0.96110   1.00
H1       0.15582    0.41729    0.95020   1.00
C3b      0.23910    0.37331    0.97929   1.00
H1       0.25051    0.33941    0.98080   1.00
C6       0.19887    0.36930    0.96324   1.00
C6       0.17213    0.31079    0.94906   1.00
C3c      0.20714    0.31492    0.93142   1.00
H1       0.25017    0.35237    0.92917   1.00
C3d      0.11064    0.25299    0.95388   1.00
H1       0.08549    0.24877    0.96548   1.00
C3       0.17911    0.26051    0.91802   1.00
H1       0.20303    0.26264    0.90629   1.00
C3       0.08401    0.19938    0.93898   1.00
H1       0.04247    0.16036    0.94147   1.00
C2       0.11730    0.20360    0.92155   1.00
C2       0.22956    0.75051    0.98988   1.00
C3       0.26449    0.78997    0.97435   1.00
H1       0.30915    0.79979    0.97236   1.00
C3       0.16393    0.73539    0.99226   1.00
H1       0.13824    0.70704    0.00284   1.00
C3a      0.23710    0.81672    0.96110   1.00
H1       0.26146    0.84418    0.95020   1.00
C3b      0.13421    0.76090    0.97929   1.00
H1       0.08890    0.74949    0.98080   1.00
C6       0.17043    0.80113    0.96324   1.00
C6       0.13866    0.82787    0.94906   1.00
C3c      0.10778    0.79286    0.93142   1.00
H1       0.10220    0.74983    0.92917   1.00
C3d      0.14235    0.88936    0.95388   1.00
H1       0.16328    0.91451    0.96548   1.00
C3       0.08140    0.82089    0.91802   1.00
H1       0.05961    0.79697    0.90629   1.00
C3       0.11537    0.91599    0.93898   1.00
H1       0.11789    0.95753    0.94147   1.00
C2       0.08630    0.88270    0.92155   1.00
C2       0.22956    0.47905    0.48988   1.00
C3       0.26449    0.47452    0.47435   1.00
H1       0.30915    0.50936    0.47236   1.00
C3       0.16393    0.42854    0.49226   1.00
H1       0.13824    0.43120    0.50284   1.00
C3a      0.23710    0.42038    0.46110   1.00
H1       0.26146    0.41729    0.45020   1.00
C3b      0.13421    0.37331    0.47929   1.00
H1       0.08890    0.33941    0.48080   1.00
C6       0.17043    0.36930    0.46324   1.00
C6       0.13866    0.31079    0.44906   1.00
C3c      0.10778    0.31492    0.43142   1.00
H1       0.10220    0.35237    0.42917   1.00
C3d      0.14235    0.25299    0.45388   1.00
H1       0.16328    0.24877    0.46548   1.00
C3       0.08140    0.26051    0.41802   1.00
H1       0.05961    0.26264    0.40629   1.00
C3       0.11537    0.19938    0.43898   1.00
H1       0.11789    0.16036    0.44147   1.00
C2       0.08630    0.20360    0.42155   1.00
C2       0.52095    0.75051    0.48988   1.00
C3       0.52548    0.78997    0.47435   1.00
H1       0.49064    0.79979    0.47236   1.00
C3       0.57146    0.73539    0.49226   1.00
H1       0.56880    0.70704    0.50284   1.00
C3a      0.57962    0.81672    0.46110   1.00
H1       0.58271    0.84418    0.45020   1.00
C3b      0.62669    0.76090    0.47929   1.00
H1       0.66059    0.74949    0.48080   1.00
C6       0.63070    0.80113    0.46324   1.00
C6       0.68921    0.82787    0.44906   1.00
C3c      0.68508    0.79286    0.43142   1.00
H1       0.64763    0.74983    0.42917   1.00
C3d      0.74701    0.88936    0.45388   1.00
H1       0.75123    0.91451    0.46548   1.00
C3       0.73949    0.82089    0.41802   1.00
H1       0.73736    0.79697    0.40629   1.00
C3       0.80062    0.91599    0.43898   1.00
H1       0.83964    0.95753    0.44147   1.00
C2       0.79640    0.88270    0.42155   1.00
C2       0.24949    -0.22956   0.48988   1.00
C3       0.21003    -0.26449   0.47435   1.00
H1       0.20021    -0.30915   0.47236   1.00
C3       0.26461    -0.16393   0.49226   1.00
H1       0.29296    -0.13824   0.50284   1.00
C3a      0.18328    -0.23710   0.46110   1.00
H1       0.15582    -0.26146   0.45020   1.00
C3b      0.23910    -0.13421   0.47929   1.00
H1       0.25051    -0.08890   0.48080   1.00
C6       0.19887    -0.17043   0.46324   1.00
C6       0.17213    -0.13866   0.44906   1.00
C3c      0.20714    -0.10778   0.43142   1.00
H1       0.25017    -0.10220   0.42917   1.00
C3d      0.11064    -0.14235   0.45388   1.00
H1       0.08549    -0.16328   0.46548   1.00
C3       0.17911    -0.08140   0.41802   1.00
H1       0.20303    -0.05961   0.40629   1.00
C3       0.08401    -0.11537   0.43898   1.00
H1       0.04247    -0.11789   0.44147   1.00
C2       0.11730    -0.08630   0.42155   1.00
C2       0.47905    0.22956    0.01012   1.00
C3       0.47452    0.26449    0.02565   1.00
H1       0.50936    0.30915    0.02764   1.00
C3       0.42854    0.16393    0.00774   1.00
H1       0.43120    0.13824    0.99716   1.00
C3a      0.42038    0.23710    0.03890   1.00
H1       0.41729    0.26146    0.04980   1.00
C3b      0.37331    0.13421    0.02071   1.00
H1       0.33941    0.08890    0.01920   1.00
C6       0.36930    0.17043    0.03676   1.00
C6       0.31079    0.13866    0.05094   1.00
C3c      0.31492    0.10778    0.06858   1.00
H1       0.35237    0.10220    0.07083   1.00
C3d      0.25299    0.14235    0.04612   1.00
H1       0.24877    0.16328    0.03452   1.00
C3       0.26051    0.08140    0.08198   1.00
H1       0.26264    0.05961    0.09371   1.00
C3       0.19938    0.11537    0.06102   1.00
H1       0.16036    0.11789    0.05853   1.00
C2       0.20360    0.08630    0.07845   1.00
C2       0.75051    0.52095    0.01012   1.00
C3       0.78997    0.52548    0.02565   1.00
H1       0.79979    0.49064    0.02764   1.00
C3       0.73539    0.57146    0.00774   1.00
H1       0.70704    0.56880    0.99716   1.00
C3a      0.81672    0.57962    0.03890   1.00
H1       0.84418    0.58271    0.04980   1.00
C3b      0.76090    0.62669    0.02071   1.00
H1       0.74949    0.66059    0.01920   1.00
C6       0.80113    0.63070    0.03676   1.00
C6       0.82787    0.68921    0.05094   1.00
C3c      0.79286    0.68508    0.06858   1.00
H1       0.74983    0.64763    0.07083   1.00
C3d      0.88936    0.74701    0.04612   1.00
H1       0.91451    0.75123    0.03452   1.00
C3       0.82089    0.73949    0.08198   1.00
H1       0.79697    0.73736    0.09371   1.00
C3       0.91599    0.80062    0.06102   1.00
H1       0.95753    0.83964    0.05853   1.00
C2       0.88270    0.79640    0.07845   1.00
C2       -0.22956   0.24949    0.01012   1.00
C3       -0.26449   0.21003    0.02565   1.00
H1       -0.30915   0.20021    0.02764   1.00
C3       -0.16393   0.26461    0.00774   1.00
H1       -0.13824   0.29296    0.99716   1.00
C3a      -0.23710   0.18328    0.03890   1.00
H1       -0.26146   0.15582    0.04980   1.00
C3b      -0.13421   0.23910    0.02071   1.00
H1       -0.08890   0.25051    0.01920   1.00
C6       -0.17043   0.19887    0.03676   1.00
C6       -0.13866   0.17213    0.05094   1.00
C3c      -0.10778   0.20714    0.06858   1.00
H1       -0.10220   0.25017    0.07083   1.00
C3d      -0.14235   0.11064    0.04612   1.00
H1       -0.16328   0.08549    0.03452   1.00
C3       -0.08140   0.17911    0.08198   1.00
H1       -0.05961   0.20303    0.09371   1.00
C3       -0.11537   0.08401    0.06102   1.00
H1       -0.11789   0.04247    0.05853   1.00
C2       -0.08630   0.11730    0.07845   1.00
C2       0.43711    0.85428    0.84345   1.00
C3       0.40218    0.85881    0.85898   1.00
H1       0.35752    0.82397    0.86097   1.00
C3       0.50274    0.90479    0.84107   1.00
H1       0.52843    0.90213    0.83049   1.00
C3a      0.42957    0.91295    0.87223   1.00
H1       0.40521    0.91604    0.88313   1.00
C3b      0.53246    0.96002    0.85404   1.00
H1       0.57777    0.99392    0.85253   1.00
C6       0.49624    0.96403    0.87009   1.00
C6       0.52801    0.02254    0.88427   1.00
C3c      0.55889    0.01841    0.90191   1.00
H1       0.56447    -0.01904   0.90416   1.00
C3d      0.52432    0.08034    0.87945   1.00
H1       0.50339    0.08456    0.86785   1.00
C3       0.58527    0.07282    0.91531   1.00
H1       0.60706    0.07069    0.92704   1.00
C3       0.55130    0.13395    0.89435   1.00
H1       0.54878    0.17297    0.89186   1.00
C2       0.58037    0.12973    0.91178   1.00
C2       0.14572    0.58282    0.84345   1.00
C3       0.14119    0.54336    0.85898   1.00
H1       0.17603    0.53354    0.86097   1.00
C3       0.09521    0.59794    0.84107   1.00
H1       0.09787    0.62629    0.83049   1.00
C3a      0.08705    0.51661    0.87223   1.00
H1       0.08396    0.48915    0.88313   1.00
C3b      0.03998    0.57243    0.85404   1.00
H1       0.00608    0.58384    0.85253   1.00
C6       0.03597    0.53220    0.87009   1.00
C6       0.97746    0.50546    0.88427   1.00
C3c      0.98159    0.54047    0.90191   1.00
H1       1.01904    0.58350    0.90416   1.00
C3d      0.91966    0.44397    0.87945   1.00
H1       0.91544    0.41882    0.86785   1.00
C3       0.92718    0.51244    0.91531   1.00
H1       0.92931    0.53636    0.92704   1.00
C3       0.86605    0.41734    0.89435   1.00
H1       0.82703    0.37580    0.89186   1.00
C2       0.87027    0.45063    0.91178   1.00
C2       0.41718    0.56289    0.84345   1.00
C3       0.45664    0.59782    0.85898   1.00
H1       0.46646    0.64248    0.86097   1.00
C3       0.40206    0.49726    0.84107   1.00
H1       0.37371    0.47157    0.83049   1.00
C3a      0.48339    0.57043    0.87223   1.00
H1       0.51085    0.59479    0.88313   1.00
C3b      0.42757    0.46754    0.85404   1.00
H1       0.41616    0.42223    0.85253   1.00
C6       0.46780    0.50376    0.87009   1.00
C6       0.49454    0.47199    0.88427   1.00
C3c      0.45953    0.44111    0.90191   1.00
H1       0.41650    0.43553    0.90416   1.00
C3d      0.55603    0.47568    0.87945   1.00
H1       0.58118    0.49661    0.86785   1.00
C3       0.48756    0.41473    0.91531   1.00
H1       0.46364    0.39294    0.92704   1.00
C3       0.58266    0.44870    0.89435   1.00
H1       0.62420    0.45122    0.89186   1.00
C2       0.54937    0.41963    0.91178   1.00
C2       0.18762    0.10377    0.32321   1.00
C3       0.19215    0.06884    0.30768   1.00
H1       0.15731    0.02418    0.30569   1.00
C3       0.23813    0.16940    0.32559   1.00
H1       0.23547    0.19509    0.33617   1.00
C3a      0.24629    0.09623    0.29443   1.00
H1       0.24938    0.07187    0.28353   1.00
C3b      0.29336    0.19912    0.31262   1.00
H1       0.32726    0.24443    0.31413   1.00
C6       0.29737    0.16290    0.29657   1.00
C6       0.35588    0.19467    0.28239   1.00
C3c      0.35175    0.22555    0.26475   1.00
H1       0.31430    0.23113    0.26250   1.00
C3d      0.41368    0.19098    0.28721   1.00
H1       0.41790    0.17005    0.29881   1.00
C3       0.40616    0.25193    0.25135   1.00
H1       0.40403    0.27372    0.23962   1.00
C3       0.46729    0.21796    0.27231   1.00
H1       0.50631    0.21544    0.27480   1.00
C2       0.46307    0.24703    0.25488   1.00
C2       0.91616    0.81238    0.32321   1.00
C3       0.87670    0.80785    0.30768   1.00
H1       0.86688    0.84269    0.30569   1.00
C3       0.93128    0.76187    0.32559   1.00
H1       0.95963    0.76453    0.33617   1.00
C3a      0.84995    0.75371    0.29443   1.00
H1       0.82249    0.75062    0.28353   1.00
C3b      0.90577    0.70664    0.31262   1.00
H1       0.91718    0.67274    0.31413   1.00
C6       0.86554    0.70263    0.29657   1.00
C6       0.83880    0.64412    0.28239   1.00
C3c      0.87381    0.64825    0.26475   1.00
H1       0.91684    0.68570    0.26250   1.00
C3d      0.77731    0.58632    0.28721   1.00
H1       0.75216    0.58210    0.29881   1.00
C3       0.84578    0.59384    0.25135   1.00
H1       0.86970    0.59597    0.23962   1.00
C3       0.75068    0.53271    0.27231   1.00
H1       0.70914    0.49369    0.27480   1.00
C2       0.78397    0.53693    0.25488   1.00
C2       0.89623    0.08384    0.32321   1.00
C3       0.93116    0.12330    0.30768   1.00
H1       0.97582    0.13312    0.30569   1.00
C3       0.83060    0.06872    0.32559   1.00
H1       0.80491    0.04037    0.33617   1.00
C3a      0.90377    0.15005    0.29443   1.00
H1       0.92813    0.17751    0.28353   1.00
C3b      0.80088    0.09423    0.31262   1.00
H1       0.75557    0.08282    0.31413   1.00
C6       0.83710    0.13446    0.29657   1.00
C6       0.80533    0.16120    0.28239   1.00
C3c      0.77445    0.12619    0.26475   1.00
H1       0.76887    0.08316    0.26250   1.00
C3d      0.80902    0.22269    0.28721   1.00
H1       0.82995    0.24784    0.29881   1.00
C3       0.74807    0.15422    0.25135   1.00
H1       0.72628    0.13030    0.23962   1.00
C3       0.78204    0.24932    0.27231   1.00
H1       0.78456    0.29086    0.27480   1.00
C2       0.75297    0.21603    0.25488   1.00
C2       0.89623    0.81238    0.82321   1.00
C3       0.93116    0.80785    0.80768   1.00
H1       0.97582    0.84269    0.80569   1.00
C3       0.83060    0.76187    0.82559   1.00
H1       0.80491    0.76453    0.83617   1.00
C3a      0.90377    0.75371    0.79443   1.00
H1       0.92813    0.75062    0.78353   1.00
C3b      0.80088    0.70664    0.81262   1.00
H1       0.75557    0.67274    0.81413   1.00
C6       0.83710    0.70263    0.79657   1.00
C6       0.80533    0.64412    0.78239   1.00
C3c      0.77445    0.64825    0.76475   1.00
H1       0.76887    0.68570    0.76250   1.00
C3d      0.80902    0.58632    0.78721   1.00
H1       0.82995    0.58210    0.79881   1.00
C3       0.74807    0.59384    0.75135   1.00
H1       0.72628    0.59597    0.73962   1.00
C3       0.78204    0.53271    0.77231   1.00
H1       0.78456    0.49369    0.77480   1.00
C2       0.75297    0.53693    0.75488   1.00
C2       0.18762    0.08384    0.82321   1.00
C3       0.19215    0.12330    0.80768   1.00
H1       0.15731    0.13312    0.80569   1.00
C3       0.23813    0.06872    0.82559   1.00
H1       0.23547    0.04037    0.83617   1.00
C3a      0.24629    0.15005    0.79443   1.00
H1       0.24938    0.17751    0.78353   1.00
C3b      0.29336    0.09423    0.81262   1.00
H1       0.32726    0.08282    0.81413   1.00
C6       0.29737    0.13446    0.79657   1.00
C6       0.35588    0.16120    0.78239   1.00
C3c      0.35175    0.12619    0.76475   1.00
H1       0.31430    0.08316    0.76250   1.00
C3d      0.41368    0.22269    0.78721   1.00
H1       0.41790    0.24784    0.79881   1.00
C3       0.40616    0.15422    0.75135   1.00
H1       0.40403    0.13030    0.73962   1.00
C3       0.46729    0.24932    0.77231   1.00
H1       0.50631    0.29086    0.77480   1.00
C2       0.46307    0.21603    0.75488   1.00
C2       0.91616    0.10377    0.82321   1.00
C3       0.87670    0.06884    0.80768   1.00
H1       0.86688    0.02418    0.80569   1.00
C3       0.93128    0.16940    0.82559   1.00
H1       0.95963    0.19509    0.83617   1.00
C3a      0.84995    0.09623    0.79443   1.00
H1       0.82249    0.07187    0.78353   1.00
C3b      0.90577    0.19912    0.81262   1.00
H1       0.91718    0.24443    0.81413   1.00
C6       0.86554    0.16290    0.79657   1.00
C6       0.83880    0.19467    0.78239   1.00
C3c      0.87381    0.22555    0.76475   1.00
H1       0.91684    0.23113    0.76250   1.00
C3d      0.77731    0.19098    0.78721   1.00
H1       0.75216    0.17005    0.79881   1.00
C3       0.84578    0.25193    0.75135   1.00
H1       0.86970    0.27372    0.73962   1.00
C3       0.75068    0.21796    0.77231   1.00
H1       0.70914    0.21544    0.77480   1.00
C2       0.78397    0.24703    0.75488   1.00
C2       0.14572    0.56289    0.34345   1.00
C3       0.14119    0.59782    0.35898   1.00
H1       0.17603    0.64248    0.36097   1.00
C3       0.09521    0.49726    0.34107   1.00
H1       0.09787    0.47157    0.33049   1.00
C3a      0.08705    0.57043    0.37223   1.00
H1       0.08396    0.59479    0.38313   1.00
C3b      0.03998    0.46754    0.35404   1.00
H1       0.00608    0.42223    0.35253   1.00
C6       0.03597    0.50376    0.37009   1.00
C6       0.97746    0.47199    0.38427   1.00
C3c      0.98159    0.44111    0.40191   1.00
H1       1.01904    0.43553    0.40416   1.00
C3d      0.91966    0.47568    0.37945   1.00
H1       0.91544    0.49661    0.36785   1.00
C3       0.92718    0.41473    0.41531   1.00
H1       0.92931    0.39294    0.42704   1.00
C3       0.86605    0.44870    0.39435   1.00
H1       0.82703    0.45122    0.39186   1.00
C2       0.87027    0.41963    0.41178   1.00
C2       0.41718    0.85428    0.34345   1.00
C3       0.45664    0.85881    0.35898   1.00
H1       0.46646    0.82397    0.36097   1.00
C3       0.40206    0.90479    0.34107   1.00
H1       0.37371    0.90213    0.33049   1.00
C3a      0.48339    0.91295    0.37223   1.00
H1       0.51085    0.91604    0.38313   1.00
C3b      0.42757    0.96002    0.35404   1.00
H1       0.41616    0.99392    0.35253   1.00
C6       0.46780    0.96403    0.37009   1.00
C6       0.49454    0.02254    0.38427   1.00
C3c      0.45953    0.01841    0.40191   1.00
H1       0.41650    -0.01904   0.40416   1.00
C3d      0.55603    0.08034    0.37945   1.00
H1       0.58118    0.08456    0.36785   1.00
C3       0.48756    0.07282    0.41531   1.00
H1       0.46364    0.07069    0.42704   1.00
C3       0.58266    0.13395    0.39435   1.00
H1       0.62420    0.17297    0.39186   1.00
C2       0.54937    0.12973    0.41178   1.00
C2       0.43711    0.58282    0.34345   1.00
C3       0.40218    0.54336    0.35898   1.00
H1       0.35752    0.53354    0.36097   1.00
C3       0.50274    0.59794    0.34107   1.00
H1       0.52843    0.62629    0.33049   1.00
C3a      0.42957    0.51661    0.37223   1.00
H1       0.40521    0.48915    0.38313   1.00
C3b      0.53246    0.57243    0.35404   1.00
H1       0.57777    0.58384    0.35253   1.00
C6       0.49624    0.53220    0.37009   1.00
C6       0.52801    0.50546    0.38427   1.00
C3c      0.55889    0.54047    0.40191   1.00
H1       0.56447    0.58350    0.40416   1.00
C3d      0.52432    0.44397    0.37945   1.00
H1       0.50339    0.41882    0.36785   1.00
C3       0.58527    0.51244    0.41531   1.00
H1       0.60706    0.53636    0.42704   1.00
C3       0.55130    0.41734    0.39435   1.00
H1       0.54878    0.37580    0.39186   1.00
C2       0.58037    0.45063    0.41178   1.00
C2       0.10377    0.18762    0.17679   1.00
C3       0.06884    0.19215    0.19232   1.00
H1       0.02418    0.15731    0.19431   1.00
C3       0.16940    0.23813    0.17441   1.00
H1       0.19509    0.23547    0.16383   1.00
C3a      0.09623    0.24629    0.20557   1.00
H1       0.07187    0.24938    0.21647   1.00
C3b      0.19912    0.29336    0.18738   1.00
H1       0.24443    0.32726    0.18587   1.00
C6       0.16290    0.29737    0.20343   1.00
C6       0.19467    0.35588    0.21761   1.00
C3c      0.22555    0.35175    0.23525   1.00
H1       0.23113    0.31430    0.23750   1.00
C3d      0.19098    0.41368    0.21279   1.00
H1       0.17005    0.41790    0.20119   1.00
C3       0.25193    0.40616    0.24865   1.00
H1       0.27372    0.40403    0.26038   1.00
C3       0.21796    0.46729    0.22769   1.00
H1       0.21544    0.50631    0.22520   1.00
C2       0.24703    0.46307    0.24512   1.00
C2       0.81238    0.91616    0.17679   1.00
C3       0.80785    0.87670    0.19232   1.00
H1       0.84269    0.86688    0.19431   1.00
C3       0.76187    0.93128    0.17441   1.00
H1       0.76453    0.95963    0.16383   1.00
C3a      0.75371    0.84995    0.20557   1.00
H1       0.75062    0.82249    0.21647   1.00
C3b      0.70664    0.90577    0.18738   1.00
H1       0.67274    0.91718    0.18587   1.00
C6       0.70263    0.86554    0.20343   1.00
C6       0.64412    0.83880    0.21761   1.00
C3c      0.64825    0.87381    0.23525   1.00
H1       0.68570    0.91684    0.23750   1.00
C3d      0.58632    0.77731    0.21279   1.00
H1       0.58210    0.75216    0.20119   1.00
C3       0.59384    0.84578    0.24865   1.00
H1       0.59597    0.86970    0.26038   1.00
C3       0.53271    0.75068    0.22769   1.00
H1       0.49369    0.70914    0.22520   1.00
C2       0.53693    0.78397    0.24512   1.00
C2       0.08384    0.89623    0.17679   1.00
C3       0.12330    0.93116    0.19232   1.00
H1       0.13312    0.97582    0.19431   1.00
C3       0.06872    0.83060    0.17441   1.00
H1       0.04037    0.80491    0.16383   1.00
C3a      0.15005    0.90377    0.20557   1.00
H1       0.17751    0.92813    0.21647   1.00
C3b      0.09423    0.80088    0.18738   1.00
H1       0.08282    0.75557    0.18587   1.00
C6       0.13446    0.83710    0.20343   1.00
C6       0.16120    0.80533    0.21761   1.00
C3c      0.12619    0.77445    0.23525   1.00
H1       0.08316    0.76887    0.23750   1.00
C3d      0.22269    0.80902    0.21279   1.00
H1       0.24784    0.82995    0.20119   1.00
C3       0.15422    0.74807    0.24865   1.00
H1       0.13030    0.72628    0.26038   1.00
C3       0.24932    0.78204    0.22769   1.00
H1       0.29086    0.78456    0.22520   1.00
C2       0.21603    0.75297    0.24512   1.00
C2       0.85428    0.43711    0.65655   1.00
C3       0.85881    0.40218    0.64102   1.00
H1       0.82397    0.35752    0.63903   1.00
C3       0.90479    0.50274    0.65893   1.00
H1       0.90213    0.52843    0.66951   1.00
C3a      0.91295    0.42957    0.62777   1.00
H1       0.91604    0.40521    0.61687   1.00
C3b      0.96002    0.53246    0.64596   1.00
H1       0.99392    0.57777    0.64747   1.00
C6       0.96403    0.49624    0.62991   1.00
C6       0.02254    0.52801    0.61573   1.00
C3c      0.01841    0.55889    0.59809   1.00
H1       -0.01904   0.56447    0.59584   1.00
C3d      0.08034    0.52432    0.62055   1.00
H1       0.08456    0.50339    0.63215   1.00
C3       0.07282    0.58527    0.58469   1.00
H1       0.07069    0.60706    0.57296   1.00
C3       0.13395    0.55130    0.60565   1.00
H1       0.17297    0.54878    0.60814   1.00
C2       0.12973    0.58037    0.58822   1.00
C2       0.58282    0.14572    0.65655   1.00
C3       0.54336    0.14119    0.64102   1.00
H1       0.53354    0.17603    0.63903   1.00
C3       0.59794    0.09521    0.65893   1.00
H1       0.62629    0.09787    0.66951   1.00
C3a      0.51661    0.08705    0.62777   1.00
H1       0.48915    0.08396    0.61687   1.00
C3b      0.57243    0.03998    0.64596   1.00
H1       0.58384    0.00608    0.64747   1.00
C6       0.53220    0.03597    0.62991   1.00
C6       0.50546    0.97746    0.61573   1.00
C3c      0.54047    0.98159    0.59809   1.00
H1       0.58350    1.01904    0.59584   1.00
C3d      0.44397    0.91966    0.62055   1.00
H1       0.41882    0.91544    0.63215   1.00
C3       0.51244    0.92718    0.58469   1.00
H1       0.53636    0.92931    0.57296   1.00
C3       0.41734    0.86605    0.60565   1.00
H1       0.37580    0.82703    0.60814   1.00
C2       0.45063    0.87027    0.58822   1.00
C2       0.56289    0.41718    0.65655   1.00
C3       0.59782    0.45664    0.64102   1.00
H1       0.64248    0.46646    0.63903   1.00
C3       0.49726    0.40206    0.65893   1.00
H1       0.47157    0.37371    0.66951   1.00
C3a      0.57043    0.48339    0.62777   1.00
H1       0.59479    0.51085    0.61687   1.00
C3b      0.46754    0.42757    0.64596   1.00
H1       0.42223    0.41616    0.64747   1.00
C6       0.50376    0.46780    0.62991   1.00
C6       0.47199    0.49454    0.61573   1.00
C3c      0.44111    0.45953    0.59809   1.00
H1       0.43553    0.41650    0.59584   1.00
C3d      0.47568    0.55603    0.62055   1.00
H1       0.49661    0.58118    0.63215   1.00
C3       0.41473    0.48756    0.58469   1.00
H1       0.39294    0.46364    0.57296   1.00
C3       0.44870    0.58266    0.60565   1.00
H1       0.45122    0.62420    0.60814   1.00
C2       0.41963    0.54937    0.58822   1.00
C2       0.56289    0.14572    0.15655   1.00
C3       0.59782    0.14119    0.14102   1.00
H1       0.64248    0.17603    0.13903   1.00
C3       0.49726    0.09521    0.15893   1.00
H1       0.47157    0.09787    0.16951   1.00
C3a      0.57043    0.08705    0.12777   1.00
H1       0.59479    0.08396    0.11687   1.00
C3b      0.46754    0.03998    0.14596   1.00
H1       0.42223    0.00608    0.14747   1.00
C6       0.50376    0.03597    0.12991   1.00
C6       0.47199    0.97746    0.11573   1.00
C3c      0.44111    0.98159    0.09809   1.00
H1       0.43553    1.01904    0.09584   1.00
C3d      0.47568    0.91966    0.12055   1.00
H1       0.49661    0.91544    0.13215   1.00
C3       0.41473    0.92718    0.08469   1.00
H1       0.39294    0.92931    0.07296   1.00
C3       0.44870    0.86605    0.10565   1.00
H1       0.45122    0.82703    0.10814   1.00
C2       0.41963    0.87027    0.08822   1.00
C2       0.85428    0.41718    0.15655   1.00
C3       0.85881    0.45664    0.14102   1.00
H1       0.82397    0.46646    0.13903   1.00
C3       0.90479    0.40206    0.15893   1.00
H1       0.90213    0.37371    0.16951   1.00
C3a      0.91295    0.48339    0.12777   1.00
H1       0.91604    0.51085    0.11687   1.00
C3b      0.96002    0.42757    0.14596   1.00
H1       0.99392    0.41616    0.14747   1.00
C6       0.96403    0.46780    0.12991   1.00
C6       0.02254    0.49454    0.11573   1.00
C3c      0.01841    0.45953    0.09809   1.00
H1       -0.01904   0.41650    0.09584   1.00
C3d      0.08034    0.55603    0.12055   1.00
H1       0.08456    0.58118    0.13215   1.00
C3       0.07282    0.48756    0.08469   1.00
H1       0.07069    0.46364    0.07296   1.00
C3       0.13395    0.58266    0.10565   1.00
H1       0.17297    0.62420    0.10814   1.00
C2       0.12973    0.54937    0.08822   1.00
C2       0.58282    0.43711    0.15655   1.00
C3       0.54336    0.40218    0.14102   1.00
H1       0.53354    0.35752    0.13903   1.00
C3       0.59794    0.50274    0.15893   1.00
H1       0.62629    0.52843    0.16951   1.00
C3a      0.51661    0.42957    0.12777   1.00
H1       0.48915    0.40521    0.11687   1.00
C3b      0.57243    0.53246    0.14596   1.00
H1       0.58384    0.57777    0.14747   1.00
C6       0.53220    0.49624    0.12991   1.00
C6       0.50546    0.52801    0.11573   1.00
C3c      0.54047    0.55889    0.09809   1.00
H1       0.58350    0.56447    0.09584   1.00
C3d      0.44397    0.52432    0.12055   1.00
H1       0.41882    0.50339    0.13215   1.00
C3       0.51244    0.58527    0.08469   1.00
H1       0.53636    0.60706    0.07296   1.00
C3       0.41734    0.55130    0.10565   1.00
H1       0.37580    0.54878    0.10814   1.00
C2       0.45063    0.58037    0.08822   1.00
C2       0.81238    0.89623    0.67679   1.00
C3       0.80785    0.93116    0.69232   1.00
H1       0.84269    0.97582    0.69431   1.00
C3       0.76187    0.83060    0.67441   1.00
H1       0.76453    0.80491    0.66383   1.00
C3a      0.75371    0.90377    0.70557   1.00
H1       0.75062    0.92813    0.71647   1.00
C3b      0.70664    0.80088    0.68738   1.00
H1       0.67274    0.75557    0.68587   1.00
C6       0.70263    0.83710    0.70343   1.00
C6       0.64412    0.80533    0.71761   1.00
C3c      0.64825    0.77445    0.73525   1.00
H1       0.68570    0.76887    0.73750   1.00
C3d      0.58632    0.80902    0.71279   1.00
H1       0.58210    0.82995    0.70119   1.00
C3       0.59384    0.74807    0.74865   1.00
H1       0.59597    0.72628    0.76038   1.00
C3       0.53271    0.78204    0.72769   1.00
H1       0.49369    0.78456    0.72520   1.00
C2       0.53693    0.75297    0.74512   1.00
C2       0.08384    0.18762    0.67679   1.00
C3       0.12330    0.19215    0.69232   1.00
H1       0.13312    0.15731    0.69431   1.00
C3       0.06872    0.23813    0.67441   1.00
H1       0.04037    0.23547    0.66383   1.00
C3a      0.15005    0.24629    0.70557   1.00
H1       0.17751    0.24938    0.71647   1.00
C3b      0.09423    0.29336    0.68738   1.00
H1       0.08282    0.32726    0.68587   1.00
C6       0.13446    0.29737    0.70343   1.00
C6       0.16120    0.35588    0.71761   1.00
C3c      0.12619    0.35175    0.73525   1.00
H1       0.08316    0.31430    0.73750   1.00
C3d      0.22269    0.41368    0.71279   1.00
H1       0.24784    0.41790    0.70119   1.00
C3       0.15422    0.40616    0.74865   1.00
H1       0.13030    0.40403    0.76038   1.00
C3       0.24932    0.46729    0.72769   1.00
H1       0.29086    0.50631    0.72520   1.00
C2       0.21603    0.46307    0.74512   1.00
C2       0.10377    0.91616    0.67679   1.00
C3       0.06884    0.87670    0.69232   1.00
H1       0.02418    0.86688    0.69431   1.00
C3       0.16940    0.93128    0.67441   1.00
H1       0.19509    0.95963    0.66383   1.00
C3a      0.09623    0.84995    0.70557   1.00
H1       0.07187    0.82249    0.71647   1.00
C3b      0.19912    0.90577    0.68738   1.00
H1       0.24443    0.91718    0.68587   1.00
C6       0.16290    0.86554    0.70343   1.00
C6       0.19467    0.83880    0.71761   1.00
C3c      0.22555    0.87381    0.73525   1.00
H1       0.23113    0.91684    0.73750   1.00
C3d      0.19098    0.77731    0.71279   1.00
H1       0.17005    0.75216    0.70119   1.00
C3       0.25193    0.84578    0.74865   1.00
H1       0.27372    0.86970    0.76038   1.00
C3       0.21796    0.75068    0.72769   1.00
H1       0.21544    0.70914    0.72520   1.00
C2       0.24703    0.78397    0.74512   1.00
