data_IRMOF10_interpen_symm_ligand3lp_label_d_1.

_audit_creation_method             'generated by an auxiliary program of Tobunporous'

_symmetry_space_group_name_H-M     'P 1'
_symmetry_Int_Tables_number        1
_symmetry_cell_setting             triclinic

_cell_length_a                    22.6523
_cell_length_b                    22.6523
_cell_length_c                    65.9502
_cell_angle_alpha                 90.0000
_cell_angle_beta                  90.0000
_cell_angle_gamma                 120.0000

loop_
_atom_site_label
_atom_site_fract_x
_atom_site_fract_y
_atom_site_fract_z
_atom_site_occupancy
O1       0.00000    -0.00000   0.62500   1.00
Zn1      0.00000    -0.00000   0.59589   1.00
Zn1      0.94848    1.04288    0.63392   1.00
Zn1      0.09439    0.05152    0.63392   1.00
Zn1      -0.04288   0.90561    0.63392   1.00
O2       0.93860    0.02610    0.58587   1.00
O2       0.08750    0.06140    0.58587   1.00
O2       -0.02610   0.91250    0.58587   1.00
O2       0.91305    0.07161    0.61181   1.00
O2       0.00462    0.12022    0.65110   1.00
O2       0.87413    0.98074    0.65071   1.00
O2       0.15856    0.08695    0.61181   1.00
O2       0.10660    0.12587    0.65071   1.00
O2       0.11559    0.99538    0.65110   1.00
O2       -0.07161   0.84144    0.61181   1.00
O2       0.87978    0.88441    0.65110   1.00
O2       0.01926    0.89340    0.65071   1.00
C1       0.91390    0.06020    0.59358   1.00
C1       0.14630    0.08610    0.59358   1.00
C1       -0.06020   0.85370    0.59358   1.00
C1       0.06663    0.14397    0.65673   1.00
C1       0.85603    0.92267    0.65673   1.00
C1       0.07733    0.93337    0.65673   1.00
O1       -0.00000   0.00000    0.87500   1.00
Zn1      -0.00000   0.00000    0.90411   1.00
Zn1      1.04288    0.94848    0.86608   1.00
Zn1      0.05152    0.09439    0.86608   1.00
Zn1      0.90561    -0.04288   0.86608   1.00
O2       0.02610    0.93860    0.91413   1.00
O2       0.06140    0.08750    0.91413   1.00
O2       0.91250    -0.02610   0.91413   1.00
O2       0.07161    0.91305    0.88819   1.00
O2       0.12022    0.00462    0.84890   1.00
O2       0.98074    0.87413    0.84929   1.00
O2       0.08695    0.15856    0.88819   1.00
O2       0.12587    0.10660    0.84929   1.00
O2       0.99538    0.11559    0.84890   1.00
O2       0.84144    -0.07161   0.88819   1.00
O2       0.88441    0.87978    0.84890   1.00
O2       0.89340    0.01926    0.84929   1.00
C1       0.06020    0.91390    0.90642   1.00
C1       0.08610    0.14630    0.90642   1.00
C1       0.85370    -0.06020   0.90642   1.00
C1       0.14397    0.06663    0.84327   1.00
C1       0.92267    0.85603    0.84327   1.00
C1       0.93337    0.07733    0.84327   1.00
O1       0.00000    0.00000    0.37500   1.00
Zn1      0.00000    0.00000    0.40411   1.00
Zn1      0.05152    -0.04288   0.36608   1.00
Zn1      0.90561    0.94848    0.36608   1.00
Zn1      1.04288    0.09439    0.36608   1.00
O2       0.06140    -0.02610   0.41413   1.00
O2       0.91250    0.93860    0.41413   1.00
O2       0.02610    0.08750    0.41413   1.00
O2       0.08695    -0.07161   0.38819   1.00
O2       0.99538    0.87978    0.34890   1.00
O2       0.12587    0.01926    0.34929   1.00
O2       0.84144    0.91305    0.38819   1.00
O2       0.89340    0.87413    0.34929   1.00
O2       0.88441    0.00462    0.34890   1.00
O2       0.07161    0.15856    0.38819   1.00
O2       0.12022    0.11559    0.34890   1.00
O2       0.98074    0.10660    0.34929   1.00
C1       0.08610    -0.06020   0.40642   1.00
C1       0.85370    0.91390    0.40642   1.00
C1       0.06020    0.14630    0.40642   1.00
C1       0.93337    0.85603    0.34327   1.00
C1       0.14397    0.07733    0.34327   1.00
C1       0.92267    0.06663    0.34327   1.00
O1       0.00000    0.00000    0.12500   1.00
Zn1      0.00000    0.00000    0.09589   1.00
Zn1      -0.04288   0.05152    0.13392   1.00
Zn1      0.94848    0.90561    0.13392   1.00
Zn1      0.09439    1.04288    0.13392   1.00
O2       -0.02610   0.06140    0.08587   1.00
O2       0.93860    0.91250    0.08587   1.00
O2       0.08750    0.02610    0.08587   1.00
O2       -0.07161   0.08695    0.11181   1.00
O2       0.87978    0.99538    0.15110   1.00
O2       0.01926    0.12587    0.15071   1.00
O2       0.91305    0.84144    0.11181   1.00
O2       0.87413    0.89340    0.15071   1.00
O2       0.00462    0.88441    0.15110   1.00
O2       0.15856    0.07161    0.11181   1.00
O2       0.11559    0.12022    0.15110   1.00
O2       0.10660    0.98074    0.15071   1.00
C1       -0.06020   0.08610    0.09358   1.00
C1       0.91390    0.85370    0.09358   1.00
C1       0.14630    0.06020    0.09358   1.00
C1       0.85603    0.93337    0.15673   1.00
C1       0.07733    0.14397    0.15673   1.00
C1       0.06663    0.92267    0.15673   1.00
O1       0.66667    0.33333    0.95833   1.00
Zn1      0.66667    0.33333    0.92922   1.00
Zn1      0.61515    0.37621    0.96725   1.00
Zn1      0.76106    0.38485    0.96725   1.00
Zn1      -0.37621   0.23894    0.96725   1.00
O2       0.60527    0.35943    0.91920   1.00
O2       0.75417    0.39473    0.91920   1.00
O2       0.64057    0.24583    0.91920   1.00
O2       0.57972    0.40494    0.94514   1.00
O2       0.67129    0.45355    0.98443   1.00
O2       0.54080    0.31407    0.98404   1.00
O2       0.82523    0.42028    0.94514   1.00
O2       0.77327    0.45920    0.98404   1.00
O2       -0.21774   0.32871    0.98443   1.00
O2       0.59506    0.17477    0.94514   1.00
O2       0.54645    0.21774    0.98443   1.00
O2       -0.31407   0.22673    0.98404   1.00
C1       0.58057    0.39353    0.92691   1.00
C1       0.81297    0.41943    0.92691   1.00
C1       0.60647    0.18703    0.92691   1.00
C1       0.73330    0.47730    0.99006   1.00
C1       0.52270    0.25600    0.99006   1.00
C1       -0.25600   0.26670    0.99006   1.00
O1       0.66667    0.33333    0.20833   1.00
Zn1      0.66667    0.33333    0.23744   1.00
Zn1      0.70954    0.28182    0.19942   1.00
Zn1      0.71818    0.42773    0.19942   1.00
Zn1      0.57227    0.29046    0.19942   1.00
O2       0.69277    0.27193    0.24746   1.00
O2       0.72807    0.42083    0.24746   1.00
O2       0.57917    0.30723    0.24746   1.00
O2       0.73828    0.24638    0.22152   1.00
O2       0.78688    0.33796    0.18224   1.00
O2       0.64740    0.20747    0.18263   1.00
O2       0.75362    0.49189    0.22152   1.00
O2       0.79253    0.43994    0.18263   1.00
O2       0.66204    0.44893    0.18224   1.00
O2       0.50811    0.26172    0.22152   1.00
O2       0.55107    0.21312    0.18224   1.00
O2       0.56006    0.35260    0.18263   1.00
C1       0.72687    0.24723    0.23975   1.00
C1       0.75277    0.47963    0.23975   1.00
C1       0.52037    0.27313    0.23975   1.00
C1       0.81063    0.39997    0.17661   1.00
C1       0.58933    0.18937    0.17661   1.00
C1       0.60003    0.41067    0.17661   1.00
O1       0.66667    0.33333    0.70833   1.00
Zn1      0.66667    0.33333    0.73744   1.00
Zn1      0.71818    0.29046    0.69942   1.00
Zn1      0.57227    0.28182    0.69942   1.00
Zn1      0.70954    0.42773    0.69942   1.00
O2       0.72807    0.30723    0.74746   1.00
O2       0.57917    0.27193    0.74746   1.00
O2       0.69277    0.42083    0.74746   1.00
O2       0.75362    0.26172    0.72152   1.00
O2       0.66204    0.21312    0.68224   1.00
O2       0.79253    0.35260    0.68263   1.00
O2       0.50811    0.24638    0.72152   1.00
O2       0.56006    0.20747    0.68263   1.00
O2       0.55107    0.33796    0.68224   1.00
O2       0.73828    0.49189    0.72152   1.00
O2       0.78688    0.44893    0.68224   1.00
O2       0.64740    0.43994    0.68263   1.00
C1       0.75277    0.27313    0.73975   1.00
C1       0.52037    0.24723    0.73975   1.00
C1       0.72687    0.47963    0.73975   1.00
C1       0.60003    0.18937    0.67661   1.00
C1       0.81063    0.41067    0.67661   1.00
C1       0.58933    0.39997    0.67661   1.00
O1       0.66667    0.33333    0.45833   1.00
Zn1      0.66667    0.33333    0.42922   1.00
Zn1      -0.37621   0.38485    0.46725   1.00
Zn1      0.61515    0.23894    0.46725   1.00
Zn1      0.76106    0.37621    0.46725   1.00
O2       0.64057    0.39473    0.41920   1.00
O2       0.60527    0.24583    0.41920   1.00
O2       0.75417    0.35943    0.41920   1.00
O2       0.59506    0.42028    0.44514   1.00
O2       0.54645    0.32871    0.48443   1.00
O2       -0.31407   0.45920    0.48404   1.00
O2       0.57972    0.17477    0.44514   1.00
O2       0.54080    0.22673    0.48404   1.00
O2       0.67129    0.21774    0.48443   1.00
O2       0.82523    0.40494    0.44514   1.00
O2       -0.21774   0.45355    0.48443   1.00
O2       0.77327    0.31407    0.48404   1.00
C1       0.60647    0.41943    0.42691   1.00
C1       0.58057    0.18703    0.42691   1.00
C1       0.81297    0.39353    0.42691   1.00
C1       0.52270    0.26670    0.49006   1.00
C1       -0.25600   0.47730    0.49006   1.00
C1       0.73330    0.25600    0.49006   1.00
O1       0.33333    0.66667    0.29167   1.00
Zn1      0.33333    0.66667    0.26256   1.00
Zn1      0.28182    0.70954    0.30058   1.00
Zn1      0.42773    0.71818    0.30058   1.00
Zn1      0.29046    0.57227    0.30058   1.00
O2       0.27193    0.69277    0.25254   1.00
O2       0.42083    0.72807    0.25254   1.00
O2       0.30723    0.57917    0.25254   1.00
O2       0.24638    0.73828    0.27848   1.00
O2       0.33796    0.78688    0.31776   1.00
O2       0.20747    0.64740    0.31737   1.00
O2       0.49189    0.75362    0.27848   1.00
O2       0.43994    0.79253    0.31737   1.00
O2       0.44893    0.66204    0.31776   1.00
O2       0.26172    0.50811    0.27848   1.00
O2       0.21312    0.55107    0.31776   1.00
O2       0.35260    0.56006    0.31737   1.00
C1       0.24723    0.72687    0.26025   1.00
C1       0.47963    0.75277    0.26025   1.00
C1       0.27313    0.52037    0.26025   1.00
C1       0.39997    0.81063    0.32339   1.00
C1       0.18937    0.58933    0.32339   1.00
C1       0.41067    0.60003    0.32339   1.00
O1       0.33333    0.66667    0.54167   1.00
Zn1      0.33333    0.66667    0.57078   1.00
Zn1      0.37621    0.61515    0.53275   1.00
Zn1      0.38485    0.76106    0.53275   1.00
Zn1      0.23894    -0.37621   0.53275   1.00
O2       0.35943    0.60527    0.58080   1.00
O2       0.39473    0.75417    0.58080   1.00
O2       0.24583    0.64057    0.58080   1.00
O2       0.40494    0.57972    0.55486   1.00
O2       0.45355    0.67129    0.51557   1.00
O2       0.31407    0.54080    0.51596   1.00
O2       0.42028    0.82523    0.55486   1.00
O2       0.45920    0.77327    0.51596   1.00
O2       0.32871    -0.21774   0.51557   1.00
O2       0.17477    0.59506    0.55486   1.00
O2       0.21774    0.54645    0.51557   1.00
O2       0.22673    -0.31407   0.51596   1.00
C1       0.39353    0.58057    0.57309   1.00
C1       0.41943    0.81297    0.57309   1.00
C1       0.18703    0.60647    0.57309   1.00
C1       0.47730    0.73330    0.50994   1.00
C1       0.25600    0.52270    0.50994   1.00
C1       0.26670    -0.25600   0.50994   1.00
O1       0.33333    0.66667    0.04167   1.00
Zn1      0.33333    0.66667    0.07078   1.00
Zn1      0.38485    -0.37621   0.03275   1.00
Zn1      0.23894    0.61515    0.03275   1.00
Zn1      0.37621    0.76106    0.03275   1.00
O2       0.39473    0.64057    0.08080   1.00
O2       0.24583    0.60527    0.08080   1.00
O2       0.35943    0.75417    0.08080   1.00
O2       0.42028    0.59506    0.05486   1.00
O2       0.32871    0.54645    0.01557   1.00
O2       0.45920    -0.31407   0.01596   1.00
O2       0.17477    0.57972    0.05486   1.00
O2       0.22673    0.54080    0.01596   1.00
O2       0.21774    0.67129    0.01557   1.00
O2       0.40494    0.82523    0.05486   1.00
O2       0.45355    -0.21774   0.01557   1.00
O2       0.31407    0.77327    0.01596   1.00
C1       0.41943    0.60647    0.07309   1.00
C1       0.18703    0.58057    0.07309   1.00
C1       0.39353    0.81297    0.07309   1.00
C1       0.26670    0.52270    0.00994   1.00
C1       0.47730    -0.25600   0.00994   1.00
C1       0.25600    0.73330    0.00994   1.00
O1       0.33333    0.66667    0.79167   1.00
Zn1      0.33333    0.66667    0.76256   1.00
Zn1      0.29046    0.71818    0.80058   1.00
Zn1      0.28182    0.57227    0.80058   1.00
Zn1      0.42773    0.70954    0.80058   1.00
O2       0.30723    0.72807    0.75254   1.00
O2       0.27193    0.57917    0.75254   1.00
O2       0.42083    0.69277    0.75254   1.00
O2       0.26172    0.75362    0.77848   1.00
O2       0.21312    0.66204    0.81776   1.00
O2       0.35260    0.79253    0.81737   1.00
O2       0.24638    0.50811    0.77848   1.00
O2       0.20747    0.56006    0.81737   1.00
O2       0.33796    0.55107    0.81776   1.00
O2       0.49189    0.73828    0.77848   1.00
O2       0.44893    0.78688    0.81776   1.00
O2       0.43994    0.64740    0.81737   1.00
C1       0.27313    0.75277    0.76025   1.00
C1       0.24723    0.52037    0.76025   1.00
C1       0.47963    0.72687    0.76025   1.00
C1       0.18937    0.60003    0.82339   1.00
C1       0.41067    0.81063    0.82339   1.00
C1       0.39997    0.58933    0.82339   1.00
C4       -0.13865   0.68696    0.55107   1.00
C4       -0.16875   0.63034    0.53741   1.00
C3       -0.08445   0.69992    0.56450   1.00
C3       -0.15196   0.57773    0.53713   1.00
C3       -0.16447   0.73296    0.55168   1.00
C3       -0.21836   0.62553    0.52314   1.00
C2       -0.08283   0.80066    0.57893   1.00
C2       -0.23303   0.51669    0.50964   1.00
C3       -0.05754   0.75495    0.57813   1.00
C3       -0.18273   0.52279    0.52350   1.00
C3       -0.13577   0.78892    0.56527   1.00
C3       -0.25086   0.56825    0.51013   1.00
H1       -0.06279   0.66988    0.56472   1.00
H1       -0.11721   0.57755    0.54689   1.00
C5       -0.21860   0.72294    0.53864   1.00
C5       -0.23577   0.67748    0.52202   1.00
H1       -0.01870   0.76149    0.58758   1.00
H1       -0.16815   0.48655    0.52387   1.00
H1       -0.15353   0.82257    0.56514   1.00
H1       -0.28936   0.56335    0.50090   1.00
O3       -0.25081   0.76023    0.54159   1.00
O3       -0.27291   0.68095    0.50588   1.00
Si1      -0.31956   0.72911    0.55552   1.00
Si1      -0.23274   0.71976    0.48519   1.00
C6       -0.32660   0.80328    0.55619   1.00
C6       -0.38648   0.66382    0.54140   1.00
C6       -0.30829   0.70528    0.58008   1.00
C6       -0.14360   0.75304    0.48410   1.00
C6       -0.27273   0.65674    0.46650   1.00
C6       -0.25216   0.78469    0.48036   1.00
C6       -0.25941   0.87139    0.56126   1.00
H2       -0.33791   0.80822    0.54039   1.00
C6       -0.38390   0.80566    0.56896   1.00
H2       -0.36882   0.67891    0.52585   1.00
C6       -0.39991   0.58933    0.54368   1.00
C6       -0.45866   0.65710    0.54232   1.00
H2       -0.26058   0.74981    0.58487   1.00
C6       -0.36256   0.69501    0.59654   1.00
C6       -0.29844   0.64177    0.58282   1.00
C6       -0.09832   0.80563    0.50069   1.00
C6       -0.11496   0.70329    0.48130   1.00
H2       -0.12995   0.78183    0.46993   1.00
H2       -0.25590   0.62029    0.46986   1.00
C6       -0.35250   0.61464    0.46730   1.00
C6       -0.25298   0.67879    0.44390   1.00
H2       -0.30221   0.75813    0.47313   1.00
C6       -0.26192   0.82011    0.49931   1.00
C6       -0.20483   0.84339    0.46548   1.00
H2       -0.21820   0.88025    0.55087   1.00
H2       -0.24221   0.87077    0.57671   1.00
H2       -0.26686   0.91534    0.55985   1.00
H2       -0.40020   0.83815    0.56143   1.00
H2       -0.42884   0.75574    0.57098   1.00
H2       -0.36618   0.82730    0.58404   1.00
H2       -0.43183   0.55714    0.53127   1.00
H2       -0.35295   0.58725    0.54314   1.00
H2       -0.42630   0.56630    0.55786   1.00
H2       -0.45657   0.70460    0.53797   1.00
H2       -0.49407   0.61827    0.53174   1.00
H2       -0.48061   0.64257    0.55750   1.00
H2       -0.41413   0.65905    0.59136   1.00
H2       -0.35417   0.67574    0.61084   1.00
H2       -0.35971   0.74299    0.60040   1.00
H2       -0.34702   0.59430    0.58419   1.00
H2       -0.27080   0.63500    0.57048   1.00
H2       -0.26956   0.64725    0.59668   1.00
H2       -0.09638   0.78045    0.51454   1.00
H2       -0.04584   0.83654    0.49531   1.00
H2       -0.11626   0.84072    0.50457   1.00
H2       -0.06027   0.73183    0.47804   1.00
H2       -0.12151   0.67310    0.49482   1.00
H2       -0.13872   0.66853    0.46857   1.00
H2       -0.37181   0.56978    0.45749   1.00
H2       -0.37077   0.59600    0.48262   1.00
H2       -0.37547   0.64458    0.46232   1.00
H2       -0.19781   0.70694    0.44177   1.00
H2       -0.27318   0.63393    0.43406   1.00
H2       -0.27380   0.71037    0.43861   1.00
H2       -0.21557   0.84664    0.50837   1.00
H2       -0.27773   0.85676    0.49505   1.00
H2       -0.30177   0.78226    0.50894   1.00
H2       -0.22785   0.87420    0.46135   1.00
H2       -0.15522   0.87742    0.47234   1.00
H2       -0.19641   0.82355    0.45138   1.00
C4       0.31519    0.17482    0.55184   1.00
C4       0.37137    0.20072    0.53803   1.00
C3       0.31972    0.20077    0.57174   1.00
C3       0.43898    0.25080    0.54336   1.00
C3       0.25090    0.11917    0.54569   1.00
C3       0.35996    0.17569    0.51771   1.00
C2       0.20013    0.11743    0.57921   1.00
C2       0.48252    0.24936    0.50936   1.00
C3       0.26392    0.17266    0.58509   1.00
C3       0.49293    0.27494    0.52937   1.00
C3       0.19488    0.09236    0.55925   1.00
C3       0.41555    0.19855    0.50410   1.00
H1       0.36363    0.24102    0.57708   1.00
H1       0.45111    0.27090    0.55758   1.00
C5       0.24291    0.09085    0.52599   1.00
C5       0.29336    0.12759    0.51109   1.00
H1       0.27036    0.19322    0.59935   1.00
H1       0.54065    0.31162    0.53402   1.00
H1       0.14858    0.05369    0.55443   1.00
H1       0.40731    0.17697    0.49002   1.00
O3       0.18475    0.03047    0.52130   1.00
O3       0.27888    0.11297    0.49072   1.00
Si1      0.18375    -0.04172   0.52395   1.00
Si1      0.26083    0.16199    0.47708   1.00
C6       0.09583    -0.09589   0.51940   1.00
C6       0.23335    -0.04706   0.50420   1.00
C6       0.20648    -0.05390   0.54857   1.00
C6       0.26361    0.23345    0.48888   1.00
C6       0.32177    0.18969    0.45759   1.00
C6       0.17997    0.10959    0.46619   1.00
C6       0.04665    -0.07789   0.53113   1.00
H2       0.09121    -0.08574   0.50346   1.00
C6       0.06230    -0.17543   0.52110   1.00
H2       0.23015    -0.01422   0.49266   1.00
C6       0.31124    -0.01807   0.50802   1.00
C6       0.20804    -0.11754   0.49359   1.00
H2       0.17545    -0.04061   0.55815   1.00
C6       0.18730    -0.12828   0.55467   1.00
C6       0.28220    -0.00882   0.55599   1.00
C6       0.21774    0.22087    0.50795   1.00
C6       0.33429    0.29772    0.49377   1.00
H2       0.24247    0.25159    0.47715   1.00
H2       0.36959    0.22410    0.46524   1.00
C6       0.33338    0.13363    0.44755   1.00
C6       0.31432    0.23135    0.43985   1.00
H2       0.19042    0.08659    0.45313   1.00
C6       0.12789    0.04813    0.47927   1.00
C6       0.14026    0.14445    0.45773   1.00
H2       0.05920    -0.02535   0.52828   1.00
H2       0.04915    -0.08419   0.54749   1.00
H2       -0.00623   -0.11048   0.52631   1.00
H2       0.02085    -0.20033   0.51010   1.00
H2       0.09808    -0.19322   0.51823   1.00
H2       0.03982    -0.19443   0.53602   1.00
H2       0.33828    -0.01111   0.49368   1.00
H2       0.33503    0.03168    0.51531   1.00
H2       0.32006    -0.05272   0.51736   1.00
H2       0.15657    -0.13806   0.48757   1.00
H2       0.24036    -0.11286   0.48065   1.00
H2       0.20880    -0.15451   0.50408   1.00
H2       0.20696    -0.15020   0.54366   1.00
H2       0.20750    -0.13017   0.56959   1.00
H2       0.13243    -0.16117   0.55594   1.00
H2       0.31379    -0.03080   0.55182   1.00
H2       0.30717    0.04268    0.55007   1.00
H2       0.28364    -0.00458   0.57254   1.00
H2       0.24194    0.21679    0.52174   1.00
H2       0.20833    0.26333    0.51014   1.00
H2       0.16817    0.17486    0.50652   1.00
H2       0.32775    0.34057    0.49831   1.00
H2       0.36048    0.28866    0.50616   1.00
H2       0.36807    0.31504    0.48063   1.00
H2       0.37954    0.15717    0.43823   1.00
H2       0.34043    0.10273    0.45898   1.00
H2       0.29083    0.09955    0.43784   1.00
H2       0.30801    0.27319    0.44547   1.00
H2       0.36010    0.25405    0.43036   1.00
H2       0.27100    0.19894    0.43012   1.00
H2       0.11511    0.06454    0.49333   1.00
H2       0.08065    0.01604    0.47099   1.00
H2       0.14927    0.01614    0.48323   1.00
H2       0.09636    0.10846    0.44870   1.00
H2       0.12125    0.16296    0.46999   1.00
H2       0.17212    0.18732    0.44783   1.00
C4       0.82964    0.14626    0.55240   1.00
C4       0.80369    0.17558    0.53826   1.00
C3       0.87066    0.18193    0.56936   1.00
C3       0.82123    0.24519    0.53862   1.00
C3       0.81494    0.07780    0.54938   1.00
C3       0.75745    0.13346    0.52287   1.00
C2       0.88297    0.08448    0.57971   1.00
C2       0.75024    0.23138    0.50886   1.00
C3       0.89693    0.15207    0.58259   1.00
C3       0.79477    0.27221    0.52444   1.00
C3       0.84087    0.04817    0.56311   1.00
C3       0.73366    0.16235    0.50821   1.00
H1       0.88246    0.23057    0.57265   1.00
H1       0.85407    0.27841    0.54910   1.00
C5       0.77420    0.03928    0.53271   1.00
C5       0.73562    0.06293    0.52205   1.00
H1       0.92671    0.18052    0.59451   1.00
H1       0.80878    0.32278    0.52554   1.00
H1       0.82833    -0.00160   0.56107   1.00
H1       0.70408    0.13255    0.49653   1.00
O3       0.76957    -0.02212   0.52791   1.00
O3       0.68125    0.01895    0.51002   1.00
Si1      0.82126    -0.02467   0.51112   1.00
Si1      0.60405    -0.01304   0.51897   1.00
C6       0.79819    -0.11078   0.51482   1.00
C6       0.79503    -0.01230   0.48708   1.00
C6       0.90818    0.03063    0.51681   1.00
C6       0.59357    0.01259    0.54340   1.00
C6       0.56372    0.01200    0.50096   1.00
C6       0.56595    -0.10247   0.51789   1.00
C6       0.79462    -0.13381   0.53743   1.00
H2       0.74558    -0.13778   0.50940   1.00
C6       0.83548    -0.14309   0.50308   1.00
H2       0.74118    -0.02972   0.48967   1.00
C6       0.82670    0.06218    0.47880   1.00
C6       0.79688    -0.05530   0.46876   1.00
H2       0.91073    0.01951    0.53281   1.00
C6       0.96161    0.01755    0.50560   1.00
C6       0.93869    0.10991    0.51521   1.00
C6       0.63094    0.00099    0.56158   1.00
C6       0.60265    0.08530    0.54644   1.00
H2       0.53933    -0.02157   0.54623   1.00
H2       0.58747    0.06697    0.50317   1.00
C6       0.57671    0.00248    0.47818   1.00
C6       0.48515    -0.01764   0.50325   1.00
H2       0.54947    -0.11490   0.50214   1.00
C6       0.61407    -0.13217   0.52154   1.00
C6       0.50098    -0.14630   0.53114   1.00
H2       0.76042    -0.12323   0.54641   1.00
H2       0.84492    -0.10769   0.54457   1.00
H2       0.77501    -0.18870   0.53847   1.00
H2       0.79977    -0.19690   0.49994   1.00
H2       0.85659    -0.11825   0.48865   1.00
H2       0.87715    -0.14145   0.51188   1.00
H2       0.79643    0.06436    0.46620   1.00
H2       0.82785    0.09731    0.49027   1.00
H2       0.87845    0.08097    0.47321   1.00
H2       0.76714    -0.10987   0.47189   1.00
H2       0.77452    -0.04671   0.45516   1.00
H2       0.84916    -0.04187   0.46507   1.00
H2       0.95475    0.01614    0.48918   1.00
H2       1.01409    0.05697    0.50898   1.00
H2       0.95796    -0.02998   0.51049   1.00
H2       0.95674    0.12891    0.49993   1.00
H2       0.90288    0.12640    0.51931   1.00
H2       0.98242    0.13623    0.52540   1.00
H2       0.68369    0.04197    0.56284   1.00
H2       0.60584    -0.00044   0.57589   1.00
H2       0.63069    -0.04707   0.56035   1.00
H2       0.58523    0.08986    0.56153   1.00
H2       0.65564    0.12549    0.54517   1.00
H2       0.57262    0.09583    0.53564   1.00
H2       0.55959    0.02980    0.46830   1.00
H2       0.63100    0.02318    0.47514   1.00
H2       0.54971    -0.05105   0.47367   1.00
H2       0.47145    -0.01135   0.51865   1.00
H2       0.46786    0.00902    0.49315   1.00
H2       0.45667    -0.07173   0.49934   1.00
H2       0.63622    -0.12075   0.53671   1.00
H2       0.58741    -0.18741   0.51943   1.00
H2       0.65564    -0.11050   0.51068   1.00
H2       0.47638    -0.20010   0.52684   1.00
H2       0.51372    -0.14273   0.54725   1.00
H2       0.46304    -0.13055   0.52918   1.00
C4       0.68397    -0.14749   0.94780   1.00
C4       0.62879    -0.17639   0.96197   1.00
C3       0.70174    -0.18701   0.93517   1.00
C3       0.58992    -0.24725   0.96625   1.00
C3       0.72465    -0.07507   0.94625   1.00
C3       0.61085    -0.13255   0.97252   1.00
C2       0.79839    -0.08518   0.92025   1.00
C2       0.51896    -0.23068   0.99118   1.00
C3       0.75759    -0.15677   0.92185   1.00
C3       0.53610    -0.27376   0.98031   1.00
C3       0.78000    -0.04556   0.93245   1.00
C3       0.55836    -0.15995   0.98726   1.00
H1       0.67449    -0.23892   0.93522   1.00
H1       0.59982    -0.28165   0.95937   1.00
C5       0.70961    -0.03261   0.95844   1.00
C5       0.64569    -0.06158   0.96846   1.00
H1       0.76831    -0.18794   0.91320   1.00
H1       0.50938    -0.32549   0.98266   1.00
H1       0.80756    0.00644    0.93110   1.00
H1       0.54903    -0.12743   0.99561   1.00
O3       0.75528    0.03638    0.95941   1.00
O3       0.62078    -0.02057   0.97536   1.00
Si1      0.81231    0.06664    0.97745   1.00
Si1      0.56341    -0.01484   0.96188   1.00
C6       0.85943    0.15082    0.96813   1.00
C6       0.76969    0.06347    1.00016   1.00
C6       0.86288    0.02749    0.97859   1.00
C6       0.53365    -0.06393   0.93946   1.00
C6       0.49540    -0.04036   0.97895   1.00
C6       0.59605    0.07215    0.95636   1.00
C6       0.87783    0.15800    0.94499   1.00
H2       0.82314    0.16896    0.96971   1.00
C6       0.92615    0.20551    0.97907   1.00
H2       0.72508    0.06487    0.99454   1.00
C6       0.74120    -0.00217   1.01356   1.00
C6       0.80528    0.12440    1.01539   1.00
H2       0.87718    0.02841    0.96271   1.00
C6       0.93140    0.06554    0.99074   1.00
C6       0.82999    -0.04867   0.98580   1.00
C6       0.58716    -0.05401   0.92285   1.00
C6       0.48320    -0.14261   0.94099   1.00
H2       0.50268    -0.04462   0.93265   1.00
H2       0.47592    -0.09488   0.98087   1.00
C6       0.51466    -0.00929   1.00079   1.00
C6       0.43364    -0.03263   0.97193   1.00
H2       0.58611    0.09261    0.97011   1.00
C6       0.67464    0.11568    0.95311   1.00
C6       0.56270    0.09110    0.93857   1.00
H2       0.83236    0.12990    0.93561   1.00
H2       0.91254    0.13888    0.94163   1.00
H2       0.90228    0.21123    0.94012   1.00
H2       0.93131    0.25599    0.97762   1.00
H2       0.92674    0.19536    0.99516   1.00
H2       0.97205    0.20926    0.97239   1.00
H2       0.70418    -0.00394   1.02456   1.00
H2       0.71459    -0.04856   1.00458   1.00
H2       0.78193    -0.00343   1.02206   1.00
H2       0.81852    0.17278    1.00813   1.00
H2       0.77151    0.11869    1.02804   1.00
H2       0.85134    0.12769    1.02178   1.00
H2       0.92278    0.07731    1.00614   1.00
H2       0.95688    0.03539    0.99182   1.00
H2       0.96784    0.11253    0.98323   1.00
H2       0.83195    -0.05273   1.00225   1.00
H2       0.77713    -0.08004   0.98135   1.00
H2       0.85767    -0.07220   0.97925   1.00
H2       0.61134    -0.08420   0.92606   1.00
H2       0.56255    -0.07038   0.90804   1.00
H2       0.62698    -0.00091   0.92132   1.00
H2       0.46215    -0.16386   0.92607   1.00
H2       0.50795    -0.17000   0.94660   1.00
H2       0.43971    -0.15473   0.95075   1.00
H2       0.47150    -0.03661   1.01112   1.00
H2       0.55694    -0.01380   1.00705   1.00
H2       0.52903    0.04444    1.00103   1.00
H2       0.41530    -0.05490   0.95697   1.00
H2       0.39083    -0.05911   0.98244   1.00
H2       0.44694    0.02084    0.97151   1.00
H2       0.69163    0.09841    0.94008   1.00
H2       0.69116    0.16958    0.95095   1.00
H2       0.70098    0.11226    0.96642   1.00
H2       0.57999    0.14567    0.93869   1.00
H2       0.57599    0.07893    0.92383   1.00
H2       0.50729    0.06443    0.93982   1.00
C4       0.17481    0.31523    0.94815   1.00
C4       0.20070    0.37139    0.96196   1.00
C3       0.20029    0.31995    0.92818   1.00
C3       0.25025    0.43914    0.95658   1.00
C3       0.11966    0.25073    0.95438   1.00
C3       0.17623    0.35983    0.98235   1.00
C2       0.11744    0.20014    0.92079   1.00
C2       0.24935    0.48251    0.99064   1.00
C3       0.17218    0.26414    0.91482   1.00
C3       0.27440    0.49308    0.97057   1.00
C3       0.09286    0.19471    0.94081   1.00
C3       0.19907    0.41538    0.99596   1.00
H1       0.24017    0.36402    0.92277   1.00
H1       0.26994    0.45139    0.94231   1.00
C5       0.09183    0.24254    0.97415   1.00
C5       0.12869    0.29310    0.98902   1.00
H1       0.19238    0.27072    0.90051   1.00
H1       0.31068    0.54091    0.96588   1.00
H1       0.05456    0.14828    0.94569   1.00
H1       0.17784    0.40700    1.01011   1.00
O3       0.03184    0.18410    0.97894   1.00
O3       0.11470    0.27857    1.00940   1.00
Si1      -0.04074   0.18245    0.97653   1.00
Si1      0.16448    0.26106    1.02286   1.00
C6       -0.09424   0.09445    0.98111   1.00
C6       -0.04601   0.23180    0.99637   1.00
C6       -0.05386   0.20495    0.95198   1.00
C6       0.23590    0.26446    1.01084   1.00
C6       0.19229    0.32199    1.04235   1.00
C6       0.11287    0.18011    1.03379   1.00
C6       -0.07603   0.04564    0.96925   1.00
H2       -0.08356   0.08996    0.99701   1.00
C6       -0.17387   0.06036    0.97962   1.00
H2       -0.01267   0.22892    1.00780   1.00
C6       -0.01769   0.30960    0.99258   1.00
C6       -0.11628   0.20598    1.00716   1.00
H2       -0.04049   0.17417    0.94231   1.00
C6       -0.12856   0.18518    0.94609   1.00
C6       -0.00947   0.28073    0.94453   1.00
C6       0.22314    0.21867    0.99174   1.00
C6       0.29968    0.33540    1.00585   1.00
H2       0.25463    0.24359    1.02247   1.00
H2       0.22621    0.36990    1.03467   1.00
C6       0.13615    0.33305    1.05259   1.00
C6       0.23469    0.31496    1.05995   1.00
H2       0.09004    0.19031    1.04695   1.00
C6       0.05124    0.12770    1.02083   1.00
C6       0.14847    0.14089    1.04208   1.00
H2       -0.02330   0.05861    0.97195   1.00
H2       -0.08284   0.04806    0.95292   1.00
H2       -0.10816   -0.00728   0.97409   1.00
H2       -0.19820   0.01888    0.99063   1.00
H2       -0.19198   0.09581    0.98260   1.00
H2       -0.19317   0.03779    0.96472   1.00
H2       -0.01055   0.33659    1.00693   1.00
H2       0.03187    0.33372    0.98516   1.00
H2       -0.05283   0.31805    0.98336   1.00
H2       -0.13626   0.15456    1.01317   1.00
H2       -0.11151   0.23821    1.02014   1.00
H2       -0.15371   0.20640    0.99680   1.00
H2       -0.15045   0.20457    0.95720   1.00
H2       -0.13105   0.20526    0.93121   1.00
H2       -0.16114   0.13027    0.94485   1.00
H2       -0.03171   0.31199    0.94882   1.00
H2       0.04221    0.30605    0.95033   1.00
H2       -0.00567   0.28219    0.92798   1.00
H2       0.21845    0.24271    0.97800   1.00
H2       0.26582    0.20968    0.98940   1.00
H2       0.17742    0.16891    0.99323   1.00
H2       0.34266    0.32927    1.00116   1.00
H2       0.29000    0.36138    0.99353   1.00
H2       0.31714    0.36919    1.01898   1.00
H2       0.15964    0.37922    1.06190   1.00
H2       0.10473    0.33978    1.04128   1.00
H2       0.10257    0.29039    1.06235   1.00
H2       0.27661    0.30905    1.05419   1.00
H2       0.25734    0.36075    1.06944   1.00
H2       0.20279    0.27155    1.06971   1.00
H2       0.06746    0.11511    1.00670   1.00
H2       0.01966    0.08039    1.02914   1.00
H2       0.01881    0.14869    1.01700   1.00
H2       0.11297    0.09688    1.05116   1.00
H2       0.16689    0.12213    1.02973   1.00
H2       0.19152    0.17300    1.05189   1.00
C4       0.14626    0.82965    0.94760   1.00
C4       0.17558    0.80370    0.96174   1.00
C3       0.18196    0.87073    0.93065   1.00
C3       0.24521    0.82129    0.96140   1.00
C3       0.07777    0.81488    0.95061   1.00
C3       0.13344    0.75739    0.97712   1.00
C2       0.08448    0.88297    0.92029   1.00
C2       0.23138    0.75024    0.99114   1.00
C3       0.15210    0.89700    0.91743   1.00
C3       0.27223    0.79483    0.97557   1.00
C3       0.04815    0.84080    0.93688   1.00
C3       0.16233    0.73360    0.99178   1.00
H1       0.23062    0.88258    0.92737   1.00
H1       0.27845    0.85418    0.95093   1.00
C5       0.03923    0.77407    0.96726   1.00
C5       0.06290    0.73550    0.97792   1.00
H1       0.18057    0.92682    0.90551   1.00
H1       0.32281    0.80888    0.97449   1.00
H1       -0.00164   0.82822    0.93891   1.00
H1       0.13251    0.70397    1.00345   1.00
O3       -0.02221   0.76937    0.97205   1.00
O3       0.01891    0.68108    0.98994   1.00
Si1      -0.02486   0.82099    0.98885   1.00
Si1      -0.01299   0.60391    0.98097   1.00
C6       -0.11097   0.79785    0.98513   1.00
C6       -0.01253   0.79471    1.01288   1.00
C6       0.03040    0.90793    0.98319   1.00
C6       0.01273    0.59353    0.95654   1.00
C6       0.01205    0.56358    0.99897   1.00
C6       -0.10243   0.56574    0.98202   1.00
C6       -0.13395   0.79433    0.96251   1.00
H2       -0.13796   0.74522    0.99054   1.00
C6       -0.14338   0.83505    0.99687   1.00
H2       -0.02990   0.74087    1.01028   1.00
C6       0.06194    0.82641    1.02118   1.00
C6       -0.05561   0.79645    1.03120   1.00
H2       0.01932    0.91052    0.96718   1.00
C6       0.01723    0.96129    0.99440   1.00
C6       0.10968    0.93850    0.98480   1.00
C6       0.00114    0.63093    0.93836   1.00
C6       0.08548    0.60269    0.95351   1.00
H2       -0.02139   0.53930    0.95369   1.00
H2       0.06703    0.58737    0.99678   1.00
C6       0.00245    0.57648    1.02175   1.00
C6       -0.01752   0.48501    0.99666   1.00
H2       -0.11489   0.54921    0.99777   1.00
C6       -0.13218   0.61382    0.97837   1.00
C6       -0.14618   0.50080    0.96875   1.00
H2       -0.12331   0.76018    0.95353   1.00
H2       -0.10784   0.84465    0.95539   1.00
H2       -0.18885   0.77468    0.96146   1.00
H2       -0.19718   0.79930    1.00000   1.00
H2       -0.11858   0.85614    1.01131   1.00
H2       -0.14175   0.87673    0.98808   1.00
H2       0.06411    0.79611    1.03378   1.00
H2       0.09711    0.82762    1.00972   1.00
H2       0.08067    0.87813    1.02679   1.00
H2       -0.11016   0.76669    1.02806   1.00
H2       -0.04703   0.77408    1.04480   1.00
H2       -0.04222   0.84872    1.03490   1.00
H2       0.01578    0.95438    1.01082   1.00
H2       0.05663    1.01379    0.99104   1.00
H2       -0.03030   0.95761    0.98951   1.00
H2       0.12864    0.95651    1.00009   1.00
H2       0.12623    0.90274    0.98070   1.00
H2       0.13601    0.98226    0.97463   1.00
H2       0.04209    0.68370    0.93711   1.00
H2       -0.00022   0.60589    0.92404   1.00
H2       -0.04694   0.63063    0.93958   1.00
H2       0.09011    0.58533    0.93841   1.00
H2       0.12564    0.65569    0.95480   1.00
H2       0.09601    0.57266    0.96431   1.00
H2       0.02977    0.55936    1.03163   1.00
H2       0.02310    0.63075    1.02480   1.00
H2       -0.05109   0.54943    1.02625   1.00
H2       -0.01117   0.47137    0.98126   1.00
H2       0.00914    0.46774    1.00677   1.00
H2       -0.07162   0.45649    1.00056   1.00
H2       -0.12073   0.63602    0.96321   1.00
H2       -0.18743   0.58712    0.98047   1.00
H2       -0.11057   0.65535    0.98925   1.00
H2       -0.20000   0.47614    0.97304   1.00
H2       -0.14257   0.51358    0.95265   1.00
H2       -0.13039   0.46289    0.97071   1.00
C4       0.14469    0.31056    0.44975   1.00
C4       0.17440    0.36734    0.46335   1.00
C3       0.16992    0.26492    0.44706   1.00
C3       0.23581    0.38777    0.47421   1.00
C3       0.08713    0.29886    0.43787   1.00
C3       0.14128    0.40618    0.46644   1.00
C2       0.08381    0.19893    0.42120   1.00
C2       0.23205    0.48372    0.49023   1.00
C3       0.14060    0.21088    0.43310   1.00
C3       0.26353    0.44396    0.48743   1.00
C3       0.05749    0.24328    0.42414   1.00
C3       0.17160    0.46436    0.47915   1.00
H1       0.21019    0.26948    0.45521   1.00
H1       0.26244    0.36271    0.47274   1.00
C5       0.05937    0.34257    0.43983   1.00
C5       0.07846    0.38723    0.45671   1.00
H1       0.16135    0.17983    0.43170   1.00
H1       0.30775    0.45601    0.49501   1.00
H1       0.01507    0.23440    0.41613   1.00
H1       0.14957    0.49416    0.48020   1.00
O3       0.01155    0.33820    0.42606   1.00
O3       0.03905    0.41526    0.46249   1.00
Si1      0.03586    0.38761    0.40612   1.00
Si1      -0.01340   0.38151    0.48153   1.00
C6       -0.04388   0.34913    0.39371   1.00
C6       0.05973    0.47061    0.41442   1.00
C6       0.09773    0.38135    0.39145   1.00
C6       -0.01508   0.31224    0.49444   1.00
C6       0.01253    0.45031    0.49832   1.00
C6       -0.09553   0.35835    0.47263   1.00
C6       -0.08256   0.26930    0.39250   1.00
H2       -0.07435   0.36139    0.40387   1.00
C6       -0.05182   0.37360    0.37212   1.00
H2       0.03022    0.46039    0.42837   1.00
C6       0.13575    0.51935    0.42060   1.00
C6       0.03990    0.51518    0.40106   1.00
H2       0.07586    0.32618    0.39015   1.00
C6       0.10912    0.40926    0.36919   1.00
C6       0.17187    0.41030    0.40007   1.00
C6       -0.03078   0.24748    0.48185   1.00
C6       0.04461    0.32565    0.50919   1.00
H2       -0.05871   0.29579    0.50456   1.00
H2       0.06180    0.45956    0.50390   1.00
C6       0.02674    0.51938    0.48865   1.00
C6       -0.03278   0.43877    0.51746   1.00
H2       -0.09667   0.40597    0.47294   1.00
C6       -0.11150   0.33352    0.45020   1.00
C6       -0.15840   0.30605    0.48540   1.00
H2       -0.08954   0.24636    0.40752   1.00
H2       -0.05481   0.25143    0.38313   1.00
H2       -0.13348   0.24936    0.38602   1.00
H2       -0.10224   0.36855    0.37063   1.00
H2       -0.01422   0.42654    0.36911   1.00
H2       -0.04774   0.34298    0.35999   1.00
H2       0.14073    0.56262    0.42937   1.00
H2       0.15550    0.49399    0.43016   1.00
H2       0.16838    0.53981    0.40726   1.00
H2       -0.01492   0.48937    0.39828   1.00
H2       0.05293    0.56322    0.40861   1.00
H2       0.06666    0.52773    0.38653   1.00
H2       0.11996    0.46197    0.36886   1.00
H2       0.15151    0.40764    0.36176   1.00
H2       0.06493    0.37828    0.35974   1.00
H2       0.20462    0.46429    0.39656   1.00
H2       0.17344    0.40505    0.41636   1.00
H2       0.19567    0.38315    0.39333   1.00
H2       0.01472    0.25315    0.47441   1.00
H2       -0.04991   0.20285    0.49174   1.00
H2       -0.06950   0.23570    0.47032   1.00
H2       0.03163    0.27996    0.51809   1.00
H2       0.09163    0.33919    0.50114   1.00
H2       0.05506    0.36589    0.52011   1.00
H2       0.05339    0.56122    0.49945   1.00
H2       0.05944    0.53208    0.47528   1.00
H2       -0.02021   0.51821    0.48417   1.00
H2       -0.04369   0.39241    0.52558   1.00
H2       -0.00653   0.48114    0.52812   1.00
H2       -0.08105   0.43562    0.51341   1.00
H2       -0.10935   0.28704    0.44770   1.00
H2       -0.16178   0.32406    0.44552   1.00
H2       -0.07455   0.37256    0.44018   1.00
H2       -0.20518   0.30395    0.48010   1.00
H2       -0.16577   0.25464    0.48426   1.00
H2       -0.15290   0.32016    0.50138   1.00
C4       0.68688    0.82556    0.44891   1.00
C4       0.63145    0.79980    0.46298   1.00
C3       0.74046    0.81027    0.44991   1.00
C3       0.62731    0.76137    0.48049   1.00
C3       0.69000    0.86998    0.43306   1.00
C3       0.57668    0.81268    0.45950   1.00
C2       0.79897    0.88240    0.42047   1.00
C2       0.51838    0.75081    0.49096   1.00
C3       0.79517    0.83819    0.43616   1.00
C3       0.57204    0.73699    0.49400   1.00
C3       0.74496    0.89660    0.41911   1.00
C3       0.52292    0.79015    0.47376   1.00
H1       0.74118    0.77822    0.46062   1.00
H1       0.66452    0.75032    0.48401   1.00
C5       0.63805    0.88730    0.43119   1.00
C5       0.57605    0.84844    0.44194   1.00
H1       0.83271    0.82570    0.43772   1.00
H1       0.57149    0.70897    0.50631   1.00
H1       0.74553    0.92687    0.40748   1.00
H1       0.48636    0.80352    0.47174   1.00
O3       0.64689    0.93862    0.41814   1.00
O3       0.51799    0.84974    0.43621   1.00
Si1      0.67872    1.01648    0.42658   1.00
Si1      0.46051    0.78686    0.42269   1.00
C6       0.68797    1.05620    0.40283   1.00
C6       0.61526    1.01927    0.44135   1.00
C6       0.75827    1.04743    0.43875   1.00
C6       0.47406    0.71839    0.41676   1.00
C6       0.38640    0.75674    0.43744   1.00
C6       0.44886    0.82228    0.40030   1.00
C6       0.72215    1.03544    0.38570   1.00
H2       0.63504    1.03549    0.39807   1.00
C6       0.72140    1.13572    0.40109   1.00
H2       0.56866    0.97729    0.43497   1.00
C6       0.61258    1.00409    0.46458   1.00
C6       0.60665    1.08353    0.43975   1.00
H2       0.78603    1.03354    0.42800   1.00
C6       0.80285    1.12647    0.44178   1.00
C6       0.76180    1.01690    0.45983   1.00
C6       0.54096    0.73484    0.40526   1.00
C6       0.46377    0.66521    0.43359   1.00
H2       0.43286    0.68882    0.40606   1.00
H2       0.39597    0.73287    0.45043   1.00
C6       0.37239    0.81236    0.44661   1.00
C6       0.31779    0.70112    0.42782   1.00
H2       0.41472    0.84093    0.40484   1.00
C6       0.51331    0.88601    0.39167   1.00
C6       0.41370    0.77367    0.38183   1.00
H2       0.69531    0.98029    0.38341   1.00
H2       0.77526    1.05196    0.38935   1.00
H2       0.72120    1.05816    0.37116   1.00
H2       0.69781    1.14868    0.38870   1.00
H2       0.71578    1.15905    0.41482   1.00
H2       0.77582    1.16059    0.39766   1.00
H2       0.56361    0.99310    0.47103   1.00
H2       0.61766    0.95963    0.46767   1.00
H2       0.65252    1.04769    0.47278   1.00
H2       0.59790    1.09299    0.42411   1.00
H2       0.56243    1.07666    0.44841   1.00
H2       0.65145    1.12886    0.44566   1.00
H2       0.77417    1.14673    0.44955   1.00
H2       0.84884    1.14051    0.45067   1.00
H2       0.82117    1.15265    0.42738   1.00
H2       0.75376    1.04320    0.47248   1.00
H2       0.72483    0.96319    0.46144   1.00
H2       0.81214    1.02216    0.46192   1.00
H2       0.58387    0.75123    0.41560   1.00
H2       0.53464    0.68949    0.39741   1.00
H2       0.55477    0.77428    0.39382   1.00
H2       0.46448    0.62129    0.42696   1.00
H2       0.50377    0.68642    0.44501   1.00
H2       0.41472    0.64509    0.44123   1.00
H2       0.33246    0.78996    0.45817   1.00
H2       0.41776    0.85288    0.45404   1.00
H2       0.35589    0.83560    0.43509   1.00
H2       0.32220    0.65893    0.42152   1.00
H2       0.27762    0.67945    0.43932   1.00
H2       0.30075    0.72245    0.41584   1.00
H2       0.55287    0.87451    0.38724   1.00
H2       0.50095    0.90716    0.37852   1.00
H2       0.53469    0.92585    0.40309   1.00
H2       0.40005    0.79910    0.37016   1.00
H2       0.44734    0.75785    0.37484   1.00
H2       0.36663    0.72801    0.38625   1.00
C4       0.16976    -0.14037   0.44994   1.00
C4       0.19581    -0.17065   0.46370   1.00
C3       0.12296    -0.11892   0.45566   1.00
C3       0.17300    -0.18815   0.48403   1.00
C3       0.19052    -0.13176   0.42920   1.00
C3       0.24770    -0.18430   0.45695   1.00
C2       0.11685    -0.08270   0.42099   1.00
C2       0.24994    -0.23316   0.49044   1.00
C3       0.09692    -0.09123   0.44157   1.00
C3       0.19975    -0.21796   0.49710   1.00
C3       0.16464    -0.10255   0.41530   1.00
C3       0.27187    -0.21702   0.47008   1.00
H1       0.10661    -0.12256   0.47024   1.00
H1       0.13599    -0.18015   0.48991   1.00
C5       0.23721    -0.15212   0.42248   1.00
C5       0.27479    -0.16584   0.43709   1.00
H1       0.06283    -0.07708   0.44656   1.00
H1       0.18173    -0.22898   0.51171   1.00
H1       0.18143    -0.09494   0.40060   1.00
H1       0.30582    -0.23040   0.46462   1.00
O3       0.24828    -0.15437   0.40202   1.00
O3       0.33363    -0.16600   0.43159   1.00
Si1      0.20406    -0.22557   0.38952   1.00
Si1      0.40728    -0.09894   0.43657   1.00
C6       0.23243    -0.19186   0.36501   1.00
C6       0.23460    -0.28053   0.39664   1.00
C6       0.11508    -0.26045   0.39194   1.00
C6       0.40822    -0.03023   0.44960   1.00
C6       0.44844    -0.13219   0.45132   1.00
C6       0.45155    -0.07053   0.41342   1.00
C6       0.23153    -0.12466   0.35994   1.00
H2       0.28628    -0.17710   0.36557   1.00
C6       0.20307    -0.23788   0.34565   1.00
H2       0.28657    -0.24450   0.40145   1.00
C6       0.20033    -0.32941   0.41509   1.00
C6       0.24168    -0.32573   0.37994   1.00
H2       0.10916    -0.21612   0.38912   1.00
C6       0.06855    -0.31565   0.37603   1.00
C6       0.07964    -0.29106   0.41286   1.00
C6       0.36865    0.00306    0.44003   1.00
C6       0.39242    -0.03661   0.47289   1.00
H2       0.46194    0.00903    0.44879   1.00
H2       0.42048    -0.14557   0.46562   1.00
C6       0.44326    -0.19987   0.44344   1.00
C6       0.52505    -0.08309   0.45675   1.00
H2       0.47268    -0.10399   0.41095   1.00
C6       0.40739    -0.07991   0.39425   1.00
C6       0.51342    0.00404    0.41238   1.00
H2       0.26062    -0.08467   0.37104   1.00
H2       0.17948    -0.13345   0.35969   1.00
H2       0.25464    -0.10440   0.34515   1.00
H2       0.24255    -0.22135   0.33399   1.00
H2       0.18486    -0.29145   0.34867   1.00
H2       0.16088    -0.23439   0.33889   1.00
H2       0.23242    -0.34949   0.42058   1.00
H2       0.19301    -0.30342   0.42789   1.00
H2       0.15109    -0.37286   0.41089   1.00
H2       0.27381    -0.29480   0.36743   1.00
H2       0.26596    -0.35338   0.38598   1.00
H2       0.19185    -0.36346   0.37399   1.00
H2       0.07976    -0.35725   0.37538   1.00
H2       0.01431    -0.33772   0.37954   1.00
H2       0.07479    -0.29370   0.36099   1.00
H2       0.06509    -0.34464   0.41442   1.00
H2       0.11109    -0.26451   0.42584   1.00
H2       0.03296    -0.28824   0.41424   1.00
H2       0.31461    -0.02519   0.44382   1.00
H2       0.38864    0.05495    0.44575   1.00
H2       0.37340    0.00661    0.42358   1.00
H2       0.40438    0.01280    0.47923   1.00
H2       0.33893    -0.07185   0.47614   1.00
H2       0.42305    -0.05307   0.48134   1.00
H2       0.45991    -0.22249   0.45519   1.00
H2       0.39072    -0.23782   0.43963   1.00
H2       0.47482    -0.19143   0.43005   1.00
H2       0.53324    -0.03492   0.46298   1.00
H2       0.54197    -0.10617   0.46828   1.00
H2       0.55789    -0.07221   0.44351   1.00
H2       0.38113    -0.05070   0.39522   1.00
H2       0.43810    -0.06479   0.38043   1.00
H2       0.36903    -0.13328   0.39253   1.00
H2       0.54266    0.01192    0.39844   1.00
H2       0.49652    0.04157    0.41259   1.00
H2       0.54864    0.01505    0.42496   1.00
C4       0.31486    0.13996    0.05172   1.00
C4       0.37007    0.16904    0.03756   1.00
C3       0.28009    0.07005    0.05732   1.00
C3       0.39188    0.13007    0.02622   1.00
C3       0.29203    0.18247    0.06064   1.00
C3       0.40601    0.24108    0.03445   1.00
C2       0.20149    0.08437    0.07970   1.00
C2       0.48116    0.23149    0.00887   1.00
C3       0.22472    0.04290    0.07083   1.00
C3       0.44630    0.16046    0.01241   1.00
C3       0.23690    0.15436    0.07454   1.00
C3       0.45879    0.27034    0.01983   1.00
H1       0.29412    0.03686    0.05180   1.00
H1       0.36860    0.07842    0.02757   1.00
C5       0.32460    0.25284    0.05570   1.00
C5       0.38879    0.28350    0.04579   1.00
H1       0.20123    -0.00815   0.07421   1.00
H1       0.46022    0.12981    0.00477   1.00
H1       0.22231    0.18585    0.08125   1.00
H1       0.48110    0.32137    0.01685   1.00
O3       0.29559    0.29101    0.06161   1.00
O3       0.43094    0.35350    0.04603   1.00
Si1      0.24477    0.30075    0.04614   1.00
Si1      0.49440    0.38698    0.06202   1.00
C6       0.21701    0.34121    0.06347   1.00
C6       0.29568    0.35731    0.02687   1.00
C6       0.17601    0.22279    0.03749   1.00
C6       0.50793    0.33156    0.07773   1.00
C6       0.56558    0.43285    0.04626   1.00
C6       0.48445    0.44600    0.07692   1.00
C6       0.19438    0.30678    0.08486   1.00
H2       0.26365    0.38968    0.06617   1.00
C6       0.16178    0.36045    0.05728   1.00
H2       0.34498    0.38602    0.03442   1.00
C6       0.30925    0.32685    0.00729   1.00
C6       0.27805    0.41196    0.01906   1.00
H2       0.15733    0.19371    0.05156   1.00
C6       0.11370    0.22478    0.02791   1.00
C6       0.18999    0.17727    0.02246   1.00
C6       0.44812    0.28108    0.09173   1.00
C6       0.53969    0.28997    0.06847   1.00
H2       0.54743    0.36709    0.08806   1.00
H2       0.57044    0.39327    0.03829   1.00
C6       0.55798    0.47683    0.02924   1.00
C6       0.63579    0.47955    0.05677   1.00
H2       0.50464    0.49146    0.06740   1.00
C6       0.40975    0.42747    0.08178   1.00
C6       0.52443    0.46974    0.09745   1.00
H2       0.23457    0.30089    0.09206   1.00
H2       0.14886    0.25635    0.08375   1.00
H2       0.18300    0.33769    0.09513   1.00
H2       0.17174    0.40732    0.06498   1.00
H2       0.16091    0.36881    0.04108   1.00
H2       0.11038    0.32130    0.06169   1.00
H2       0.35214    0.36649    -0.00128   1.00
H2       0.32262    0.28803    0.01080   1.00
H2       0.26488    0.30472    -0.00271   1.00
H2       0.27722    0.44347    0.03145   1.00
H2       0.31638    0.44700    0.00830   1.00
H2       0.22877    0.38795    0.01134   1.00
H2       0.12996    0.26217    0.01566   1.00
H2       0.07585    0.17525    0.02171   1.00
H2       0.08644    0.23686    0.03921   1.00
H2       0.18959    0.19137    0.00665   1.00
H2       0.23833    0.17957    0.02504   1.00
H2       0.15034    0.12378    0.02406   1.00
H2       0.41210    0.23506    0.08363   1.00
H2       0.46768    0.26495    0.10446   1.00
H2       0.42013    0.30414    0.09816   1.00
H2       0.55371    0.26592    0.08049   1.00
H2       0.50437    0.24933    0.05850   1.00
H2       0.58632    0.32228    0.06001   1.00
H2       0.59953    0.49375    0.01824   1.00
H2       0.51043    0.44743    0.02081   1.00
H2       0.55898    0.52209    0.03536   1.00
H2       0.64644    0.45233    0.06856   1.00
H2       0.67725    0.49730    0.04570   1.00
H2       0.63780    0.52456    0.06352   1.00
H2       0.38283    0.38084    0.09070   1.00
H2       0.40796    0.46840    0.09002   1.00
H2       0.38169    0.41985    0.06776   1.00
H2       0.52242    0.51350    0.10365   1.00
H2       0.50295    0.42918    0.10881   1.00
H2       0.57818    0.48574    0.09552   1.00
C4       0.82529    0.68635    0.05128   1.00
C4       0.79945    0.63101    0.03718   1.00
C3       0.80301    0.73483    0.05205   1.00
C3       0.75344    0.62223    0.02127   1.00
C3       0.87707    0.69481    0.06527   1.00
C3       0.82023    0.58120    0.03893   1.00
C2       0.88250    0.79880    0.07959   1.00
C2       0.75071    0.51855    0.00898   1.00
C3       0.83106    0.78974    0.06573   1.00
C3       0.72923    0.56721    0.00767   1.00
C3       0.90381    0.74981    0.07921   1.00
C3       0.79752    0.52779    0.02455   1.00
H1       0.76558    0.73154    0.04275   1.00
H1       0.73650    0.65577    0.01902   1.00
C5       0.90159    0.64811    0.06531   1.00
C5       0.86400    0.58521    0.05490   1.00
H1       0.81328    0.82348    0.06549   1.00
H1       0.69558    0.56313    -0.00342   1.00
H1       0.93957    0.75414    0.08953   1.00
H1       0.81627    0.49508    0.02523   1.00
O3       0.95895    0.66264    0.07636   1.00
O3       0.87385    0.53106    0.05930   1.00
Si1      1.03375    0.70114    0.06548   1.00
Si1      0.81937    0.47037    0.07406   1.00
C6       1.08278    0.71505    0.08764   1.00
C6       1.03839    0.64151    0.04935   1.00
C6       1.05289    0.77894    0.05383   1.00
C6       0.74846    0.47543    0.08303   1.00
C6       0.79081    0.39698    0.05906   1.00
C6       0.86574    0.46414    0.09459   1.00
C6       1.06346    0.74523    0.10622   1.00
H2       1.06871    0.66317    0.09208   1.00
C6       1.16280    0.75553    0.08683   1.00
H2       1.00197    0.59319    0.05640   1.00
C6       1.01446    0.63658    0.02684   1.00
C6       1.10707    0.64081    0.04813   1.00
H2       1.03916    0.80371    0.06567   1.00
C6       1.12945    0.82969    0.04855   1.00
C6       1.01301    0.77815    0.03422   1.00
C6       0.76237    0.54039    0.09521   1.00
C6       0.68797    0.45922    0.06827   1.00
H2       0.72597    0.43373    0.09398   1.00
H2       0.76013    0.40286    0.04734   1.00
C6       0.84719    0.38992    0.04738   1.00
C6       0.74375    0.32656    0.06942   1.00
H2       0.88738    0.43411    0.08859   1.00
C6       0.92830    0.53211    0.10194   1.00
C6       0.82549    0.42614    0.11417   1.00
H2       1.00962    0.71383    0.11017   1.00
H2       1.07352    0.79683    0.10306   1.00
H2       1.09253    0.74736    0.11971   1.00
H2       1.18342    0.73524    0.09810   1.00
H2       1.18286    0.75252    0.07213   1.00
H2       1.18399    0.80951    0.09038   1.00
H2       1.00608    0.58920    0.01984   1.00
H2       0.96632    0.63618    0.02570   1.00
H2       1.05264    0.67878    0.01778   1.00
H2       1.12356    0.63414    0.06308   1.00
H2       1.10168    0.59830    0.03886   1.00
H2       1.14735    0.68784    0.04137   1.00
H2       1.15102    0.80487    0.03939   1.00
H2       1.13583    0.87417    0.04013   1.00
H2       1.15997    0.85028    0.06217   1.00
H2       1.03684    0.77324    0.02042   1.00
H2       0.96040    0.73729    0.03403   1.00
H2       1.01217    0.82591    0.03301   1.00
H2       0.77102    0.58222    0.08519   1.00
H2       0.71850    0.52952    0.10472   1.00
H2       0.80617    0.55818    0.10525   1.00
H2       0.64437    0.45507    0.07667   1.00
H2       0.70159    0.49883    0.05692   1.00
H2       0.66963    0.41069    0.06046   1.00
H2       0.82405    0.34958    0.03597   1.00
H2       0.88184    0.43689    0.03932   1.00
H2       0.87745    0.37743    0.05752   1.00
H2       0.70144    0.32607    0.07749   1.00
H2       0.72142    0.28607    0.05802   1.00
H2       0.77225    0.31336    0.08008   1.00
H2       0.91349    0.56804    0.10765   1.00
H2       0.95651    0.52332    0.11387   1.00
H2       0.96346    0.55638    0.08943   1.00
H2       0.85778    0.41659    0.12442   1.00
H2       0.80774    0.45610    0.12248   1.00
H2       0.78140    0.37665    0.11064   1.00
C4       -0.14038   0.16976    0.05006   1.00
C4       -0.17065   0.19580    0.03630   1.00
C3       -0.11901   0.12289    0.04435   1.00
C3       -0.18824   0.17293    0.01597   1.00
C3       -0.13168   0.19059    0.07080   1.00
C3       -0.18422   0.24776    0.04305   1.00
C2       -0.08270   0.11685    0.07901   1.00
C2       -0.23316   0.24994    0.00956   1.00
C3       -0.09132   0.09684    0.05843   1.00
C3       -0.21804   0.19968    0.00291   1.00
C3       -0.10247   0.16470    0.08469   1.00
C3       -0.21694   0.27194    0.02991   1.00
H1       -0.12271   0.10648    0.02977   1.00
H1       -0.18031   0.13587    0.01010   1.00
C5       -0.15195   0.23735    0.07751   1.00
C5       -0.16567   0.27492    0.06289   1.00
H1       -0.07723   0.06270    0.05345   1.00
H1       -0.22912   0.18162    -0.01169   1.00
H1       -0.09480   0.18155    0.09939   1.00
H1       -0.23025   0.30594    0.03537   1.00
O3       -0.15412   0.24850    0.09797   1.00
O3       -0.16575   0.33380    0.06838   1.00
Si1      -0.22529   0.20437    0.11049   1.00
Si1      -0.09866   0.40740    0.06337   1.00
C6       -0.19148   0.23280    0.13498   1.00
C6       -0.28021   0.23497    0.10337   1.00
C6       -0.26026   0.11537    0.10809   1.00
C6       -0.03003   0.40822    0.05033   1.00
C6       -0.13189   0.44857    0.04862   1.00
C6       -0.07014   0.45175    0.08650   1.00
C6       -0.12430   0.23185    0.14004   1.00
H2       -0.17667   0.28667    0.13441   1.00
C6       -0.23745   0.20355    0.15436   1.00
H2       -0.24415   0.28691    0.09855   1.00
C6       -0.32916   0.20067    0.08494   1.00
C6       -0.32532   0.24216    0.12008   1.00
H2       -0.21595   0.10941    0.11090   1.00
C6       -0.31543   0.06894    0.12402   1.00
C6       -0.29095   0.07987    0.08718   1.00
C6       0.00323    0.36863    0.05991   1.00
C6       -0.03650   0.39234    0.02705   1.00
H2       0.00927    0.46193    0.05112   1.00
H2       -0.14535   0.42056    0.03433   1.00
C6       -0.19952   0.44349    0.05651   1.00
C6       -0.08275   0.52515    0.04316   1.00
H2       -0.10354   0.47293    0.08898   1.00
C6       -0.07950   0.40764    0.10569   1.00
C6       0.00446    0.51357    0.08753   1.00
H2       -0.08434   0.26087    0.12893   1.00
H2       -0.13315   0.17978    0.14031   1.00
H2       -0.10398   0.25500    0.15483   1.00
H2       -0.22085   0.24307    0.16601   1.00
H2       -0.29102   0.18538    0.15135   1.00
H2       -0.23399   0.16135    0.16113   1.00
H2       -0.34922   0.23278    0.07944   1.00
H2       -0.30323   0.19327    0.07213   1.00
H2       -0.37263   0.15146    0.08916   1.00
H2       -0.29433   0.27431    0.13257   1.00
H2       -0.35295   0.26647    0.11404   1.00
H2       -0.36306   0.19236    0.12605   1.00
H2       -0.35699   0.08020    0.12468   1.00
H2       -0.33756   0.01468    0.12053   1.00
H2       -0.29343   0.07521    0.13905   1.00
H2       -0.34453   0.06538    0.08564   1.00
H2       -0.26443   0.11127    0.07419   1.00
H2       -0.28820   0.03317    0.08581   1.00
H2       -0.02507   0.31458    0.05613   1.00
H2       0.05509    0.38855    0.05417   1.00
H2       0.00684    0.37344    0.07635   1.00
H2       0.01287    0.40423    0.02069   1.00
H2       -0.07179   0.33886    0.02382   1.00
H2       -0.05295   0.42298    0.01859   1.00
H2       -0.22215   0.46014    0.04477   1.00
H2       -0.23749   0.39098    0.06034   1.00
H2       -0.19100   0.47511    0.06989   1.00
H2       -0.03463   0.53327    0.03692   1.00
H2       -0.10584   0.54207    0.03164   1.00
H2       -0.07180   0.55805    0.05640   1.00
H2       -0.05034   0.38132    0.10472   1.00
H2       -0.06430   0.43840    0.11950   1.00
H2       -0.13287   0.36932    0.10742   1.00
H2       0.01241    0.54287    0.10145   1.00
H2       0.04195    0.49661    0.08731   1.00
H2       0.01546    0.54876    0.07493   1.00
C4       0.52771    1.02235    0.88368   1.00
C4       0.49822    0.96555    0.87008   1.00
C3       0.59857    1.06082    0.88797   1.00
C3       0.53564    0.93775    0.86087   1.00
C3       0.48427    1.04157    0.89388   1.00
C3       0.42743    0.93445    0.86526   1.00
C2       0.58295    1.13439    0.91213   1.00
C2       0.43453    0.84962    0.84310   1.00
C3       0.62543    1.11505    0.90188   1.00
C3       0.50485    0.88178    0.84760   1.00
C3       0.51252    1.09725    0.90757   1.00
C3       0.39678    0.87630    0.85254   1.00
H1       0.63278    1.05071    0.88106   1.00
H1       0.58627    0.95705    0.86362   1.00
C5       0.41294    1.00525    0.89026   1.00
C5       0.38743    0.96106    0.87327   1.00
H1       0.67704    1.14070    0.90449   1.00
H1       0.53457    0.86422    0.84125   1.00
H1       0.48098    1.11165    0.91435   1.00
H1       0.34523    0.85199    0.85027   1.00
O3       0.37015    1.01637    0.90252   1.00
O3       0.32307    0.94077    0.86576   1.00
Si1      0.33478    0.96779    0.92227   1.00
Si1      0.31580    0.97898    0.84572   1.00
C6       0.29929    1.01485    0.93276   1.00
C6       0.27071    0.88779    0.91330   1.00
C6       0.39429    0.96500    0.93897   1.00
C6       0.39116    1.04275    0.83404   1.00
C6       0.27091    0.91159    0.82862   1.00
C6       0.26278    1.01221    0.85238   1.00
C6       0.34828    1.09392    0.93414   1.00
H2       0.26101    1.00773    0.92146   1.00
C6       0.26041    0.99388    0.95357   1.00
H2       0.25816    0.90114    0.89866   1.00
C6       0.29026    0.83192    0.90872   1.00
C6       0.20174    0.84984    0.92519   1.00
H2       0.43247    1.01895    0.94054   1.00
C6       0.36929    0.93810    0.96100   1.00
C6       0.43376    0.92758    0.93225   1.00
C6       0.44224    1.10488    0.84722   1.00
C6       0.43549    1.02159    0.82103   1.00
H2       0.37128    1.06393    0.82287   1.00
H2       0.30770    0.89592    0.82448   1.00
C6       0.20810    0.84615    0.83748   1.00
C6       0.24663    0.92831    0.80832   1.00
H2       0.21127    0.96851    0.85119   1.00
C6       0.26865    1.03779    0.87464   1.00
C6       0.26403    1.06911    0.83857   1.00
H2       0.37016    1.11575    0.91937   1.00
H2       0.39024    1.10660    0.94468   1.00
H2       0.32108    1.11968    0.93932   1.00
H2       0.21916    1.00576    0.95353   1.00
H2       0.23787    0.93981    0.95684   1.00
H2       0.29348    1.02172    0.96632   1.00
H2       0.25118    0.79119    0.89938   1.00
H2       0.33778    0.85227    0.90027   1.00
H2       0.29497    0.80868    0.92268   1.00
H2       0.17817    0.88149    0.92666   1.00
H2       0.16465    0.80359    0.91724   1.00
H2       0.20914    0.83473    0.94029   1.00
H2       0.32318    0.88802    0.96074   1.00
H2       0.40792    0.93369    0.96978   1.00
H2       0.35921    0.97313    0.96955   1.00
H2       0.40555    0.87326    0.93583   1.00
H2       0.44504    0.93188    0.91617   1.00
H2       0.48263    0.94931    0.94019   1.00
H2       0.47598    1.09330    0.85598   1.00
H2       0.47466    1.14851    0.83755   1.00
H2       0.41624    1.12148    0.85768   1.00
H2       0.47443    1.06535    0.81257   1.00
H2       0.46210    1.00256    0.83031   1.00
H2       0.40520    0.98283    0.80977   1.00
H2       0.19092    0.80360    0.82684   1.00
H2       0.22108    0.83003    0.85161   1.00
H2       0.16513    0.85402    0.84046   1.00
H2       0.28797    0.97241    0.80071   1.00
H2       0.22849    0.88534    0.79779   1.00
H2       0.20468    0.93820    0.81086   1.00
H2       0.31931    1.08034    0.87802   1.00
H2       0.23139    1.05378    0.87785   1.00
H2       0.25846    0.99676    0.88510   1.00
H2       0.22200    1.07783    0.84240   1.00
H2       0.31154    1.11752    0.84038   1.00
H2       0.25826    1.05501    0.82258   1.00
C4       -0.01660   0.50440    0.88576   1.00
C4       0.03873    0.53025    0.87165   1.00
C3       -0.01793   0.47092    0.90411   1.00
C3       0.09529    0.51975    0.87356   1.00
C3       -0.07460   0.51121    0.88128   1.00
C3       0.03820    0.56900    0.85464   1.00
C2       -0.13190   0.45056    0.91301   1.00
C2       0.14789    0.58289    0.84222   1.00
C3       -0.07412   0.44438    0.91731   1.00
C3       0.14870    0.54587    0.85936   1.00
C3       -0.13023   0.48522    0.89499   1.00
C3       0.09106    0.59237    0.84005   1.00
H1       0.02199    0.46504    0.90845   1.00
H1       0.09915    0.49247    0.88524   1.00
C5       -0.07652   0.54418    0.86320   1.00
C5       -0.01528   0.58374    0.85217   1.00
H1       -0.07241   0.42023    0.93028   1.00
H1       0.18857    0.53719    0.86161   1.00
H1       -0.17066   0.49214    0.89185   1.00
H1       0.08772    0.61624    0.82730   1.00
O3       -0.13657   0.54065    0.85728   1.00
O3       -0.01015   0.63185    0.83829   1.00
Si1      -0.18777   0.48087    0.84167   1.00
Si1      0.02888    0.71196    0.84498   1.00
C6       -0.25646   0.49664    0.84340   1.00
C6       -0.14987   0.50194    0.81743   1.00
C6       -0.21160   0.39791    0.85014   1.00
C6       0.06543    0.73365    0.86946   1.00
C6       0.09329    0.75113    0.82664   1.00
C6       -0.02911   0.74154    0.84157   1.00
C6       -0.27747   0.50511    0.86540   1.00
H2       -0.23523   0.54694    0.83642   1.00
C6       -0.32538   0.45026    0.83199   1.00
H2       -0.11748   0.55719    0.81855   1.00
C6       -0.10143   0.47441    0.81115   1.00
C6       -0.19658   0.48933    0.79854   1.00
H2       -0.22582   0.39917    0.86591   1.00
C6       -0.27553   0.33694    0.83993   1.00
C6       -0.15710   0.37428    0.85055   1.00
C6       0.01791    0.69912    0.88814   1.00
C6       0.13317    0.73321    0.87391   1.00
H2       0.08061    0.78752    0.87053   1.00
H2       0.12861    0.73310    0.83027   1.00
C6       0.07128    0.72914    0.80412   1.00
C6       0.13614    0.83079    0.82672   1.00
H2       -0.02650   0.75232    0.82536   1.00
C6       -0.10563   0.68907    0.84574   1.00
C6       -0.01406   0.80893    0.85260   1.00
H2       -0.23425   0.54497    0.87376   1.00
H2       -0.29748   0.45769    0.87402   1.00
H2       -0.31665   0.51986    0.86508   1.00
H2       -0.34822   0.48062    0.82719   1.00
H2       -0.31906   0.42627    0.81853   1.00
H2       -0.36297   0.40967    0.84166   1.00
H2       -0.07052   0.50227    0.79801   1.00
H2       -0.06574   0.48081    0.82316   1.00
H2       -0.13038   0.42055    0.80702   1.00
H2       -0.22589   0.51539    0.80008   1.00
H2       -0.16639   0.50929    0.78468   1.00
H2       -0.23167   0.43493    0.79623   1.00
H2       -0.27041   0.33867    0.82344   1.00
H2       -0.28360   0.28750    0.84509   1.00
H2       -0.32203   0.33706    0.84390   1.00
H2       -0.15400   0.35259    0.83607   1.00
H2       -0.10611   0.41490    0.85413   1.00
H2       -0.17072   0.33474    0.86206   1.00
H2       0.01124    0.64889    0.89123   1.00
H2       0.03990    0.72984    0.90180   1.00
H2       -0.03229   0.69365    0.88610   1.00
H2       0.15423    0.75681    0.88861   1.00
H2       0.12549    0.68182    0.87447   1.00
H2       0.17260    0.76231    0.86271   1.00
H2       0.11616    0.74690    0.79440   1.00
H2       0.04193    0.67366    0.80263   1.00
H2       0.04055    0.74998    0.79815   1.00
H2       0.15551    0.85079    0.84183   1.00
H2       0.18049    0.84857    0.81676   1.00
H2       0.10621    0.85331    0.82130   1.00
H2       -0.11463   0.67205    0.86148   1.00
H2       -0.13850   0.71015    0.84214   1.00
H2       -0.12191   0.64449    0.83621   1.00
H2       -0.04734   0.82730    0.84689   1.00
H2       -0.02246   0.80118    0.86894   1.00
H2       0.03820    0.84973    0.85010   1.00
C4       0.49665    0.47985    0.88570   1.00
C4       0.47065    0.50909    0.87156   1.00
C3       0.54100    0.51679    0.90195   1.00
C3       0.49124    0.57951    0.87113   1.00
C3       0.47845    0.41007    0.88344   1.00
C3       0.42113    0.46606    0.85698   1.00
C2       0.54974    0.41794    0.91306   1.00
C2       0.41681    0.56458    0.84217   1.00
C3       0.56714    0.48685    0.91519   1.00
C3       0.46462    0.60641    0.85697   1.00
C3       0.50436    0.38046    0.89718   1.00
C3       0.39713    0.49467    0.84230   1.00
H1       0.55543    0.56647    0.90469   1.00
H1       0.52649    0.61339    0.88100   1.00
C5       0.43428    0.37026    0.86751   1.00
C5       0.39624    0.39486    0.85700   1.00
H1       0.59941    0.51622    0.92658   1.00
H1       0.48094    0.65762    0.85748   1.00
H1       0.48936    0.32985    0.89571   1.00
H1       0.36503    0.46394    0.83117   1.00
O3       0.42596    0.30692    0.86331   1.00
O3       0.33926    0.35083    0.84587   1.00
Si1      0.47349    0.29916    0.84609   1.00
Si1      0.26395    0.32338    0.85579   1.00
C6       0.44733    0.21275    0.85078   1.00
C6       0.44482    0.30959    0.82222   1.00
C6       0.56171    0.35216    0.85049   1.00
C6       0.25886    0.35379    0.88006   1.00
C6       0.22314    0.34840    0.83795   1.00
C6       0.22225    0.23363    0.85587   1.00
C6       0.44625    0.19273    0.87360   1.00
H2       0.39394    0.18700    0.84608   1.00
C6       0.48015    0.17601    0.83901   1.00
H2       0.39195    0.29490    0.82545   1.00
C6       0.47805    0.38298    0.81299   1.00
C6       0.44159    0.26275    0.80429   1.00
H2       0.56615    0.34303    0.86655   1.00
C6       0.61129    0.33436    0.83894   1.00
C6       0.59511    0.43151    0.84791   1.00
C6       0.29750    0.34270    0.89798   1.00
C6       0.27181    0.42820    0.88236   1.00
H2       0.20483    0.32202    0.88368   1.00
H2       0.24934    0.40378    0.83945   1.00
C6       0.23173    0.33459    0.81517   1.00
C6       0.14556    0.32243    0.84122   1.00
H2       0.20312    0.21940    0.84040   1.00
C6       0.26816    0.20129    0.85935   1.00
C6       0.15892    0.19406    0.87008   1.00
H2       0.41490    0.20664    0.88278   1.00
H2       0.49761    0.21794    0.88003   1.00
H2       0.42459    0.13769    0.87531   1.00
H2       0.44223    0.12229    0.83668   1.00
H2       0.49967    0.19821    0.82418   1.00
H2       0.52216    0.17686    0.84740   1.00
H2       0.44673    0.38489    0.80066   1.00
H2       0.48272    0.42058    0.82412   1.00
H2       0.52846    0.39872    0.80677   1.00
H2       0.41042    0.20888    0.80818   1.00
H2       0.41813    0.27067    0.79083   1.00
H2       0.49256    0.27327    0.80002   1.00
H2       0.60197    0.33082    0.82261   1.00
H2       0.66486    0.37253    0.84148   1.00
H2       0.60613    0.28662    0.84428   1.00
H2       0.61122    0.44777    0.83231   1.00
H2       0.56173    0.45084    0.85218   1.00
H2       0.64057    0.45773    0.85745   1.00
H2       0.35107    0.38213    0.89839   1.00
H2       0.27525    0.34465    0.91251   1.00
H2       0.29466    0.29334    0.89719   1.00
H2       0.25745    0.43602    0.89755   1.00
H2       0.32517    0.46644    0.88024   1.00
H2       0.24142    0.43892    0.87175   1.00
H2       0.21488    0.36197    0.80521   1.00
H2       0.28510    0.35255    0.81146   1.00
H2       0.20208    0.28051    0.81139   1.00
H2       0.13496    0.33186    0.85666   1.00
H2       0.12849    0.34910    0.83104   1.00
H2       0.11454    0.26793    0.83806   1.00
H2       0.29266    0.21410    0.87419   1.00
H2       0.23913    0.14580    0.85798   1.00
H2       0.30798    0.21973    0.84792   1.00
H2       0.13162    0.13960    0.86650   1.00
H2       0.17402    0.19946    0.88602   1.00
H2       0.12248    0.21184    0.86833   1.00
C4       0.35479    0.19479    0.28267   1.00
C4       0.29804    0.16497    0.29628   1.00
C3       0.38088    0.26056    0.27398   1.00
C3       0.25792    0.19521    0.30109   1.00
C3       0.38702    0.15676    0.27710   1.00
C3       0.27995    0.10145    0.30575   1.00
C2       0.46761    0.25011    0.25449   1.00
C2       0.18308    0.10069    0.32360   1.00
C3       0.43547    0.28734    0.26019   1.00
C3       0.20241    0.16430    0.31452   1.00
C3       0.44285    0.18521    0.26346   1.00
C3       0.22207    0.06975    0.31856   1.00
H1       0.36113    0.29103    0.27746   1.00
H1       0.26757    0.24037    0.29488   1.00
C5       0.36346    0.09069    0.28526   1.00
C5       0.31924    0.06955    0.30228   1.00
H1       0.45183    0.33499    0.25427   1.00
H1       0.17560    0.18881    0.31756   1.00
H1       0.46667    0.15812    0.26004   1.00
H1       0.20720    0.02227    0.32419   1.00
O3       0.38687    0.04985    0.27735   1.00
O3       0.31121    0.01582    0.31421   1.00
Si1      0.34394    -0.00459   0.25940   1.00
Si1      0.35268    0.03236    0.33562   1.00
C6       0.40483    -0.02925   0.25388   1.00
C6       0.27029    -0.07199   0.27057   1.00
C6       0.32876    0.03335    0.23813   1.00
C6       0.40378    0.11859    0.34294   1.00
C6       0.28754    -0.01063   0.35353   1.00
C6       0.40211    -0.00784   0.33479   1.00
C6       0.48019    0.03031    0.25129   1.00
H2       0.40477    -0.05552   0.26778   1.00
C6       0.39307    -0.08043   0.23619   1.00
H2       0.28632    -0.06956   0.28630   1.00
C6       0.20407    -0.06664   0.27138   1.00
C6       0.24600    -0.14662   0.26344   1.00
H2       0.37913    0.07755    0.23536   1.00
C6       0.30740    -0.00853   0.21789   1.00
C6       0.27789    0.06128    0.24001   1.00
C6       0.46131    0.16799    0.32813   1.00
C6       0.36894    0.15872    0.35110   1.00
H2       0.43046    0.11462    0.35620   1.00
H2       0.26138    0.01880    0.35391   1.00
C6       0.23140    -0.08500   0.34783   1.00
C6       0.30941    -0.01343   0.37585   1.00
H2       0.36611    -0.06083   0.33867   1.00
C6       0.43108    -0.01111   0.31363   1.00
C6       0.46272    0.01638    0.35012   1.00
H2       0.49747    0.06360    0.26457   1.00
H2       0.48539    0.06152    0.23802   1.00
H2       0.51527    0.01071    0.24946   1.00
H2       0.41567    -0.11178   0.24010   1.00
H2       0.33943    -0.11478   0.23296   1.00
H2       0.41719    -0.05429   0.22206   1.00
H2       0.16758    -0.10322   0.28223   1.00
H2       0.21442    -0.01651   0.27632   1.00
H2       0.17896    -0.07762   0.25661   1.00
H2       0.28631    -0.15932   0.26512   1.00
H2       0.20315    -0.18382   0.27258   1.00
H2       0.22930    -0.15407   0.24763   1.00
H2       0.26324    -0.05922   0.22019   1.00
H2       0.29448    0.01679    0.20598   1.00
H2       0.34899    -0.01378   0.21170   1.00
H2       0.22532    0.02193    0.23694   1.00
H2       0.27830    0.08223    0.25481   1.00
H2       0.29114    0.10219    0.22900   1.00
H2       0.44169    0.18748    0.31640   1.00
H2       0.50056    0.21215    0.33637   1.00
H2       0.48663    0.14366    0.32076   1.00
H2       0.40693    0.20756    0.35763   1.00
H2       0.34286    0.17008    0.33920   1.00
H2       0.33237    0.13121    0.36315   1.00
H2       0.18769    -0.10295   0.35806   1.00
H2       0.21219    -0.08742   0.33247   1.00
H2       0.25033    -0.12075   0.34882   1.00
H2       0.34730    0.03694    0.38136   1.00
H2       0.26547    -0.03236   0.38602   1.00
H2       0.33026    -0.04754   0.37724   1.00
H2       0.46623    0.03945    0.30765   1.00
H2       0.45760    -0.04024   0.31420   1.00
H2       0.38959    -0.03665   0.30286   1.00
H2       0.48245    -0.01893   0.35023   1.00
H2       0.50488    0.06680    0.34613   1.00
H2       0.44697    0.01850    0.36560   1.00
C4       0.83580    0.64335    0.28331   1.00
C4       0.86365    0.70000    0.29696   1.00
C3       0.84276    0.58491    0.28599   1.00
C3       0.90639    0.70666    0.31360   1.00
C3       0.79977    0.64513    0.26577   1.00
C3       0.84815    0.75324    0.29401   1.00
C2       0.78091    0.53241    0.25447   1.00
C2       0.91922    0.81690    0.32362   1.00
C3       0.81643    0.53112    0.27192   1.00
C3       0.93291    0.76317    0.32668   1.00
C3       0.77248    0.58978    0.25195   1.00
C3       0.87775    0.81113    0.30684   1.00
H1       0.86696    0.57960    0.29828   1.00
H1       0.91986    0.67086    0.31663   1.00
C5       0.79097    0.70205    0.26218   1.00
C5       0.80375    0.74882    0.27819   1.00
H1       0.82346    0.49039    0.27459   1.00
H1       0.96304    0.76496    0.33857   1.00
H1       0.74513    0.59091    0.23974   1.00
H1       0.86969    0.85079    0.30375   1.00
O3       0.76645    0.70887    0.24373   1.00
O3       0.77746    0.79228    0.27750   1.00
Si1      0.81970    0.75365    0.22573   1.00
Si1      0.70881    0.77290    0.29050   1.00
C6       0.75875    0.73200    0.20626   1.00
C6       0.85661    0.84030    0.23249   1.00
C6       0.87845    0.72651    0.21981   1.00
C6       0.67297    0.69842    0.30560   1.00
C6       0.73463    0.84451    0.30611   1.00
C6       0.64766    0.76952    0.27330   1.00
C6       0.70493    0.65425    0.20417   1.00
H2       0.72999    0.75602    0.21148   1.00
C6       0.78114    0.75811    0.18398   1.00
H2       0.81773    0.83966    0.24242   1.00
C6       0.92396    0.87347    0.24521   1.00
C6       0.86865    0.89349    0.21551   1.00
H2       0.84537    0.67130    0.21853   1.00
C6       0.91721    0.75075    0.19910   1.00
C6       0.93570    0.73859    0.23551   1.00
C6       0.65220    0.62899    0.29497   1.00
C6       0.70845    0.69837    0.32600   1.00
H2       0.62504    0.69433    0.31053   1.00
H2       0.76961    0.84142    0.31687   1.00
C6       0.77682    0.91566    0.29557   1.00
C6       0.67844    0.84778    0.31904   1.00
H2       0.66183    0.82284    0.27122   1.00
C6       0.64889    0.74303    0.25157   1.00
C6       0.57110    0.73155    0.28006   1.00
H2       0.67799    0.63311    0.21843   1.00
H2       0.72908    0.62489    0.19962   1.00
H2       0.66613    0.64580    0.19287   1.00
H2       0.74277    0.76685    0.17671   1.00
H2       0.82950    0.80562    0.18324   1.00
H2       0.78590    0.72100    0.17457   1.00
H2       0.93333    0.92150    0.25198   1.00
H2       0.92165    0.84106    0.25773   1.00
H2       0.96792    0.88469    0.23575   1.00
H2       0.82149    0.88022    0.20748   1.00
H2       0.88680    0.94431    0.22190   1.00
H2       0.90675    0.89744    0.20460   1.00
H2       0.94269    0.80617    0.19764   1.00
H2       0.95582    0.73553    0.19737   1.00
H2       0.88277    0.72762    0.18635   1.00
H2       0.98120    0.78859    0.23368   1.00
H2       0.91972    0.73485    0.25117   1.00
H2       0.95137    0.70048    0.23337   1.00
H2       0.69552    0.62097    0.29327   1.00
H2       0.61396    0.58647    0.30398   1.00
H2       0.63006    0.62529    0.28004   1.00
H2       0.67546    0.65271    0.33488   1.00
H2       0.75604    0.69856    0.32354   1.00
H2       0.71893    0.74178    0.33559   1.00
H2       0.80019    0.95616    0.30693   1.00
H2       0.81835    0.91824    0.28645   1.00
H2       0.74516    0.92725    0.28574   1.00
H2       0.64754    0.80067    0.32747   1.00
H2       0.70182    0.88896    0.33020   1.00
H2       0.64474    0.85760    0.30955   1.00
H2       0.63792    0.69034    0.25167   1.00
H2       0.61222    0.74632    0.24155   1.00
H2       0.69894    0.77417    0.24486   1.00
H2       0.54006    0.74192    0.26953   1.00
H2       0.55005    0.67637    0.28051   1.00
H2       0.56462    0.74816    0.29500   1.00
C4       0.80734    0.16394    0.28329   1.00
C4       0.83620    0.13613    0.29694   1.00
C3       0.74071    0.15431    0.28548   1.00
C3       0.79923    0.09090    0.31302   1.00
C3       0.84645    0.20278    0.26627   1.00
C3       0.90593    0.15428    0.29457   1.00
C2       0.75140    0.21902    0.25448   1.00
C2       0.89780    0.08085    0.32361   1.00
C3       0.71333    0.18074    0.27142   1.00
C3       0.82932    0.06450    0.32611   1.00
C3       0.81837    0.23009    0.25247   1.00
C3       0.93443    0.12484    0.30738   1.00
H1       0.71021    0.12802    0.29740   1.00
H1       0.74924    0.07546    0.31563   1.00
C5       0.91344    0.21433    0.26320   1.00
C5       0.94672    0.20119    0.27934   1.00
H1       0.66466    0.17171    0.27371   1.00
H1       0.80028    0.03248    0.33759   1.00
H1       0.84771    0.25943    0.24065   1.00
H1       0.98307    0.13493    0.30467   1.00
O3       0.94649    0.24175    0.24514   1.00
O3       1.01680    0.22970    0.27930   1.00
Si1      0.94198    0.19139    0.22674   1.00
Si1      1.06283    0.29729    0.29311   1.00
C6       0.98184    0.25492    0.20797   1.00
C6       0.99331    0.15632    0.23357   1.00
C6       0.85747    0.13126    0.21983   1.00
C6       1.02037    0.32913    0.30818   1.00
C6       1.10868    0.27187    0.30884   1.00
C6       1.12123    0.36145    0.27674   1.00
C6       0.95562    0.30700    0.20610   1.00
H2       1.03387    0.28449    0.21375   1.00
C6       0.98904    0.23579    0.18558   1.00
H2       1.02960    0.19469    0.24402   1.00
C6       0.95966    0.08751    0.24558   1.00
C6       1.03760    0.14811    0.21680   1.00
H2       0.83380    0.16298    0.21863   1.00
C6       0.84656    0.09520    0.19876   1.00
C6       0.81193    0.07158    0.23481   1.00
C6       0.97122    0.34890    0.29737   1.00
C6       0.98324    0.29059    0.32808   1.00
H2       1.06258    0.37718    0.31374   1.00
H2       1.07006    0.23488    0.31908   1.00
C6       1.14102    0.23290    0.29821   1.00
C6       1.16558    0.32766    0.32255   1.00
H2       1.16188    0.34930    0.27483   1.00
C6       1.09552    0.36178    0.25483   1.00
C6       1.15678    0.43713    0.28429   1.00
H2       0.95885    0.33191    0.22057   1.00
H2       0.90258    0.28183    0.20102   1.00
H2       0.98629    0.34751    0.19528   1.00
H2       1.03634    0.27604    0.17890   1.00
H2       0.99013    0.18845    0.18450   1.00
H2       0.94766    0.23064    0.17586   1.00
H2       0.99862    0.07900    0.25254   1.00
H2       0.92750    0.08714    0.25790   1.00
H2       0.92911    0.04433    0.23560   1.00
H2       1.07119    0.19657    0.20933   1.00
H2       1.07085    0.13081    0.22328   1.00
H2       1.00555    0.11078    0.20540   1.00
H2       0.87819    0.07155    0.19733   1.00
H2       0.79343    0.05552    0.19640   1.00
H2       0.85817    0.13089    0.18634   1.00
H2       0.81848    0.02739    0.23269   1.00
H2       0.82198    0.08584    0.25065   1.00
H2       0.75801    0.05443    0.23220   1.00
H2       0.92081    0.30469    0.29503   1.00
H2       0.96434    0.38513    0.30661   1.00
H2       0.99082    0.37306    0.28274   1.00
H2       0.96805    0.32137    0.33709   1.00
H2       0.93711    0.24244    0.32497   1.00
H2       1.01609    0.28043    0.33781   1.00
H2       1.15807    0.20930    0.30952   1.00
H2       1.10400    0.19181    0.28854   1.00
H2       1.18494    0.26674    0.28890   1.00
H2       1.14691    0.35631    0.33108   1.00
H2       1.18334    0.30410    0.33366   1.00
H2       1.20966    0.36347    0.31360   1.00
H2       1.05260    0.37092    0.25472   1.00
H2       1.13592    0.40042    0.24534   1.00
H2       1.07898    0.31282    0.24765   1.00
H2       1.19893    0.47037    0.27426   1.00
H2       1.12115    0.45640    0.28465   1.00
H2       1.17834    0.44258    0.29942   1.00
C4       0.80893    0.64956    0.78111   1.00
C4       0.83741    0.70475    0.79528   1.00
C3       0.75330    0.63534    0.76814   1.00
C3       0.80926    0.74732    0.79920   1.00
C3       0.83653    0.60513    0.77993   1.00
C3       0.89749    0.71881    0.80620   1.00
C2       0.75206    0.53493    0.75358   1.00
C2       0.89714    0.81438    0.82451   1.00
C3       0.72537    0.57940    0.75483   1.00
C3       0.83864    0.80104    0.81328   1.00
C3       0.80845    0.54973    0.76613   1.00
C3       0.92459    0.77131    0.82094   1.00
H1       0.73160    0.66534    0.76793   1.00
H1       0.76636    0.74031    0.79205   1.00
C5       0.89219    0.61651    0.79247   1.00
C5       0.92989    0.68011    0.80251   1.00
H1       0.68484    0.57137    0.74592   1.00
H1       0.81642    0.83052    0.81536   1.00
H1       0.83000    0.51942    0.76505   1.00
H1       0.96500    0.77791    0.82955   1.00
O3       0.91120    0.56755    0.79375   1.00
O3       0.99467    0.70106    0.80979   1.00
Si1      0.88023    0.51055    0.81179   1.00
Si1      1.06032    0.75576    0.79657   1.00
C6       0.91293    0.45905    0.80289   1.00
C6       0.91994    0.55180    0.83463   1.00
C6       0.79022    0.46481    0.81246   1.00
C6       1.04524    0.78792    0.77392   1.00
C6       1.10514    0.82305    0.81371   1.00
C6       1.11048    0.71799    0.79154   1.00
C6       0.90215    0.44079    0.77974   1.00
H2       0.96782    0.49262    0.80473   1.00
C6       0.89583    0.39093    0.81396   1.00
H2       0.96777    0.59458    0.82919   1.00
C6       0.88554    0.58403    0.84767   1.00
C6       0.94079    0.51316    0.85016   1.00
H2       0.77724    0.45096    0.79654   1.00
C6       0.75519    0.39617    0.82462   1.00
C6       0.75062    0.50202    0.81926   1.00
C6       1.00039    0.73571    0.75719   1.00
C6       1.02172    0.84219    0.77508   1.00
H2       1.09625    0.81627    0.76736   1.00
H2       1.07279    0.84578    0.81532   1.00
C6       1.11380    0.80231    0.83570   1.00
C6       1.17688    0.88184    0.80698   1.00
H2       1.13963    0.72609    0.80547   1.00
C6       1.07121    0.63925    0.78831   1.00
C6       1.16424    0.74862    0.77402   1.00
H2       0.92273    0.48654    0.77032   1.00
H2       0.84806    0.40882    0.77612   1.00
H2       0.92830    0.41337    0.77516   1.00
H2       0.93909    0.38227    0.81285   1.00
H2       0.88452    0.39115    0.82997   1.00
H2       0.85234    0.34652    0.80714   1.00
H2       0.92148    0.61977    0.85880   1.00
H2       0.86901    0.61299    0.83847   1.00
H2       0.84170    0.54499    0.85600   1.00
H2       0.97401    0.49686    0.84319   1.00
H2       0.96950    0.54607    0.86288   1.00
H2       0.89592    0.46865    0.85639   1.00
H2       0.77451    0.40363    0.84014   1.00
H2       0.69978    0.37389    0.82539   1.00
H2       0.76309    0.35768    0.81731   1.00
H2       0.74372    0.50047    0.83567   1.00
H2       0.77541    0.55513    0.81479   1.00
H2       0.69975    0.47712    0.81244   1.00
H2       0.94617    0.71469    0.76009   1.00
H2       1.01100    0.76055    0.74235   1.00
H2       1.01032    0.69354    0.75588   1.00
H2       1.02395    0.86395    0.76010   1.00
H2       0.96946    0.82041    0.78041   1.00
H2       1.05449    0.88491    0.78492   1.00
H2       1.13159    0.84583    0.84599   1.00
H2       1.06537    0.76201    0.84176   1.00
H2       1.15056    0.78455    0.83626   1.00
H2       1.17533    0.90107    0.79193   1.00
H2       1.19511    0.92496    0.81746   1.00
H2       1.21454    0.86514    0.80688   1.00
H2       1.03780    0.62416    0.77510   1.00
H2       1.10606    0.61941    0.78647   1.00
H2       1.03989    0.61420    0.80149   1.00
H2       1.19879    0.72800    0.77445   1.00
H2       1.13967    0.73671    0.75914   1.00
H2       1.19586    0.80385    0.77529   1.00
C4       0.35277    0.16762    0.78187   1.00
C4       0.29630    0.13961    0.79559   1.00
C3       0.35769    0.20790    0.76476   1.00
C3       0.23643    0.14383    0.79255   1.00
C3       0.40720    0.15405    0.78512   1.00
C3       0.29928    0.10550    0.81344   1.00
C2       0.46706    0.21955    0.75428   1.00
C2       0.18363    0.08032    0.82381   1.00
C3       0.41304    0.23284    0.75127   1.00
C3       0.18189    0.11557    0.80636   1.00
C3       0.46321    0.18076    0.77155   1.00
C3       0.24258    0.07485    0.82671   1.00
H1       0.32131    0.22049    0.76163   1.00
H1       0.23049    0.16718    0.78015   1.00
C5       0.40547    0.11415    0.80195   1.00
C5       0.35846    0.10157    0.81787   1.00
H1       0.41358    0.26127    0.73907   1.00
H1       0.14013    0.12070    0.80346   1.00
H1       0.50277    0.17220    0.77439   1.00
H1       0.24375    0.04689    0.83872   1.00
O3       0.45183    0.09174    0.80317   1.00
O3       0.36795    0.08115    0.83676   1.00
Si1      0.43183    0.01663    0.79434   1.00
Si1      0.40104    0.13770    0.85484   1.00
C6       0.51320    0.02488    0.79696   1.00
C6       0.37274    -0.04460   0.81130   1.00
C6       0.40569    0.00489    0.76871   1.00
C6       0.42049    0.22211    0.84958   1.00
C6       0.33915    0.10330    0.87404   1.00
C6       0.47435    0.13714    0.86351   1.00
C6       0.57467    0.09307    0.78885   1.00
H2       0.51955    0.02684    0.81341   1.00
C6       0.52716    -0.03287   0.78950   1.00
H2       0.38473    -0.01574   0.82542   1.00
C6       0.29498    -0.07261   0.80752   1.00
C6       0.37883    -0.10896   0.81624   1.00
H2       0.44529    0.05174    0.76166   1.00
C6       0.40569    -0.05526   0.75696   1.00
C6       0.33554    -0.00111   0.76293   1.00
C6       0.47002    0.26044    0.83159   1.00
C6       0.36135    0.23886    0.84809   1.00
H2       0.44808    0.24929    0.86321   1.00
H2       0.29695    0.10829    0.86805   1.00
C6       0.30845    0.02542    0.87847   1.00
C6       0.35779    0.14015    0.89508   1.00
H2       0.45441    0.09351    0.87377   1.00
C6       0.51564    0.12286    0.84724   1.00
C6       0.52798    0.19988    0.87606   1.00
H2       0.57595    0.13752    0.79576   1.00
H2       0.57187    0.09729    0.77240   1.00
H2       0.62337    0.09635    0.79243   1.00
H2       0.56471    -0.03535   0.79935   1.00
H2       0.48170    -0.08304   0.78952   1.00
H2       0.54827    -0.02351   0.77417   1.00
H2       0.26529    -0.09816   0.82107   1.00
H2       0.28407    -0.03207   0.80401   1.00
H2       0.27595    -0.10967   0.79517   1.00
H2       0.42940    -0.09472   0.82200   1.00
H2       0.34273    -0.14010   0.82807   1.00
H2       0.36820    -0.14116   0.80285   1.00
H2       0.37603    -0.10347   0.76503   1.00
H2       0.38432    -0.06159   0.74170   1.00
H2       0.45721    -0.04587   0.75472   1.00
H2       0.29334    -0.05349   0.76398   1.00
H2       0.32232    0.02983    0.77231   1.00
H2       0.33707    0.01550    0.74726   1.00
H2       0.44342    0.24765    0.81709   1.00
H2       0.49335    0.31561    0.83350   1.00
H2       0.51144    0.24928    0.83062   1.00
H2       0.38186    0.29403    0.84767   1.00
H2       0.33089    0.21797    0.83444   1.00
H2       0.32736    0.22006    0.86116   1.00
H2       0.26294    0.00647    0.88797   1.00
H2       0.29272    -0.00452   0.86448   1.00
H2       0.34464    0.01492    0.88631   1.00
H2       0.37787    0.19490    0.89352   1.00
H2       0.31244    0.12046    0.90470   1.00
H2       0.39534    0.13206    0.90311   1.00
H2       0.53634    0.16204    0.83552   1.00
H2       0.55781    0.11941    0.85404   1.00
H2       0.48278    0.07432    0.83990   1.00
H2       0.56518    0.18894    0.88312   1.00
H2       0.55604    0.24487    0.86647   1.00
H2       0.50407    0.21281    0.88830   1.00
C4       0.83204    0.18534    0.78206   1.00
C4       0.85998    0.15671    0.79574   1.00
C3       0.78428    0.14732    0.76662   1.00
C3       0.84778    0.08895    0.79419   1.00
C3       0.85348    0.25614    0.78356   1.00
C3       0.90244    0.19751    0.81199   1.00
C2       0.78051    0.24774    0.75434   1.00
C2       0.91962    0.10306    0.82375   1.00
C3       0.75950    0.17769    0.75306   1.00
C3       0.87624    0.06263    0.80791   1.00
C3       0.82690    0.28554    0.76998   1.00
C3       0.93296    0.17096    0.82513   1.00
H1       0.76593    0.09640    0.76481   1.00
H1       0.81821    0.05687    0.78296   1.00
C5       0.90110    0.29705    0.79866   1.00
C5       0.91477    0.26473    0.81496   1.00
H1       0.72542    0.14775    0.74211   1.00
H1       0.86517    0.01308    0.80615   1.00
H1       0.84129    0.33596    0.77159   1.00
H1       0.96668    0.20221    0.83588   1.00
O3       0.93014    0.36694    0.79795   1.00
O3       0.94403    0.29998    0.83267   1.00
Si1      1.00322    0.41289    0.78652   1.00
Si1      0.89517    0.28812    0.85224   1.00
C6       1.00464    0.49147    0.78771   1.00
C6       1.06677    0.41351    0.80211   1.00
C6       1.00328    0.38785    0.76116   1.00
C6       0.80720    0.22824    0.85007   1.00
C6       0.93117    0.26157    0.87122   1.00
C6       0.90708    0.36844    0.85924   1.00
C6       0.93728    0.48983    0.78114   1.00
H2       1.00926    0.50178    0.80399   1.00
C6       1.06385    0.55736    0.77763   1.00
H2       1.04307    0.40395    0.81707   1.00
C6       1.08600    0.35673    0.79888   1.00
C6       1.13651    0.48142    0.80425   1.00
H2       0.95617    0.38347    0.75523   1.00
C6       1.06190    0.43991    0.74703   1.00
C6       0.99962    0.31792    0.75668   1.00
C6       0.76615    0.23856    0.83272   1.00
C6       0.78254    0.15012    0.85055   1.00
H2       0.78681    0.23645    0.86412   1.00
H2       0.91907    0.21066    0.86638   1.00
C6       1.01076    0.30330    0.87306   1.00
C6       0.90236    0.25386    0.89321   1.00
H2       0.95418    0.39152    0.86806   1.00
C6       0.92072    0.41962    0.84162   1.00
C6       0.85204    0.37052    0.87313   1.00
H2       0.89346    0.45211    0.78981   1.00
H2       0.92660    0.47749    0.76505   1.00
H2       0.94059    0.53906    0.78379   1.00
H2       1.07421    0.60234    0.78650   1.00
H2       1.11123    0.55634    0.77657   1.00
H2       1.05087    0.56569    0.76234   1.00
H2       1.11431    0.35387    0.81193   1.00
H2       1.04113    0.30640    0.79731   1.00
H2       1.11813    0.36712    0.78551   1.00
H2       1.12937    0.52315    0.80946   1.00
H2       1.16932    0.47646    0.81549   1.00
H2       1.16414    0.49578    0.78986   1.00
H2       1.11190    0.45633    0.75369   1.00
H2       1.06059    0.41829    0.73207   1.00
H2       1.05702    0.48447    0.74407   1.00
H2       1.05005    0.32273    0.75648   1.00
H2       0.96920    0.27839    0.76756   1.00
H2       0.97675    0.29884    0.74178   1.00
H2       0.77128    0.21772    0.81837   1.00
H2       0.71177    0.21235    0.83638   1.00
H2       0.78208    0.29207    0.83040   1.00
H2       0.72702    0.12018    0.85195   1.00
H2       0.79603    0.13305    0.83679   1.00
H2       0.80314    0.13631    0.86348   1.00
H2       1.02893    0.27634    0.88270   1.00
H2       1.03522    0.30999    0.85829   1.00
H2       1.02862    0.35365    0.87964   1.00
H2       0.84681    0.22348    0.89348   1.00
H2       0.92137    0.22780    0.90293   1.00
H2       0.91793    0.30346    0.90005   1.00
H2       0.87783    0.40099    0.83114   1.00
H2       0.93150    0.46934    0.84731   1.00
H2       0.96512    0.42786    0.83304   1.00
H2       0.87019    0.42208    0.87889   1.00
H2       0.80467    0.35491    0.86485   1.00
H2       0.84030    0.33749    0.88632   1.00
C4       -0.01932   0.47251    0.38474   1.00
C4       0.03598    0.50189    0.37062   1.00
C3       -0.06396   0.40121    0.38686   1.00
C3       0.04833    0.46337    0.35596   1.00
C3       -0.03179   0.51642    0.39733   1.00
C3       0.08197    0.57373    0.37105   1.00
C2       -0.13203   0.41721    0.41296   1.00
C2       0.14802    0.56531    0.34227   1.00
C3       -0.11900   0.37429    0.40049   1.00
C3       0.10317    0.49408    0.34230   1.00
C3       -0.08682   0.48822    0.41125   1.00
C3       0.13516    0.60403    0.35658   1.00
H1       -0.05765   0.36673    0.37861   1.00
H1       0.01761    0.41194    0.35469   1.00
C5       0.01095    0.58821    0.39598   1.00
C5       0.07437    0.61507    0.38576   1.00
H1       -0.14988   0.32231    0.40125   1.00
H1       0.10996    0.46361    0.33214   1.00
H1       -0.09400   0.52027    0.42057   1.00
H1       0.16497    0.65597    0.35625   1.00
O3       -0.00774   0.63046    0.40556   1.00
O3       0.12535    0.68161    0.38907   1.00
Si1      -0.05042   0.65938    0.39314   1.00
Si1      0.18759    0.69598    0.40445   1.00
C6       -0.06803   0.69695    0.41401   1.00
C6       0.00657    0.72182    0.37606   1.00
C6       -0.12626   0.59431    0.38212   1.00
C6       0.18828    0.62518    0.41550   1.00
C6       0.26039    0.74125    0.38926   1.00
C6       0.18950    0.75148    0.42349   1.00
C6       -0.09568   0.65160    0.43353   1.00
H2       -0.01730   0.73831    0.41808   1.00
C6       -0.11319   0.73116    0.41151   1.00
H2       0.05564    0.73879    0.38342   1.00
C6       0.01357    0.69881    0.35424   1.00
C6       0.00175    0.78777    0.37286   1.00
H2       -0.14906   0.55833    0.39467   1.00
C6       -0.18090   0.61354    0.37540   1.00
C6       -0.12198   0.55249    0.36371   1.00
C6       0.12477    0.57400    0.42819   1.00
C6       0.20890    0.58081    0.40229   1.00
H2       0.22984    0.64950    0.42645   1.00
H2       0.25742    0.70314    0.37854   1.00
C6       0.26282    0.79961    0.37590   1.00
C6       0.33142    0.77174    0.39990   1.00
H2       0.21662    0.80183    0.41646   1.00
C6       0.11928    0.74246    0.43002   1.00
C6       0.22879    0.75704    0.44360   1.00
H2       -0.06137   0.63369    0.43855   1.00
H2       -0.14584   0.60699    0.43084   1.00
H2       -0.10027   0.68029    0.44617   1.00
H2       -0.09560   0.77448    0.42185   1.00
H2       -0.11167   0.74997    0.39624   1.00
H2       -0.16663   0.69627    0.41523   1.00
H2       0.05972    0.73827    0.34681   1.00
H2       0.01783    0.65304    0.35447   1.00
H2       -0.02975   0.68940    0.34473   1.00
H2       0.00657    0.81392    0.38719   1.00
H2       0.04304    0.82451    0.36316   1.00
H2       -0.04640   0.77589    0.36566   1.00
H2       -0.15872   0.65768    0.36530   1.00
H2       -0.22386   0.57156    0.36748   1.00
H2       -0.20328   0.62451    0.38840   1.00
H2       -0.11897   0.57707    0.34920   1.00
H2       -0.07864   0.54459    0.36443   1.00
H2       -0.16763   0.50193    0.36322   1.00
H2       0.08419    0.53657    0.41856   1.00
H2       0.13854    0.54564    0.43876   1.00
H2       0.10406    0.59971    0.43720   1.00
H2       0.21623    0.54549    0.41184   1.00
H2       0.17006    0.55011    0.39117   1.00
H2       0.25695    0.61175    0.39432   1.00
H2       0.30349    0.81665    0.36459   1.00
H2       0.21521    0.78211    0.36756   1.00
H2       0.27219    0.84380    0.38495   1.00
H2       0.33516    0.73378    0.40915   1.00
H2       0.37217    0.78972    0.38859   1.00
H2       0.34160    0.81510    0.40951   1.00
H2       0.08598    0.69245    0.43666   1.00
H2       0.12525    0.78127    0.44097   1.00
H2       0.09343    0.74792    0.41690   1.00
H2       0.23519    0.80014    0.45276   1.00
H2       0.20140    0.71101    0.45283   1.00
H2       0.27977    0.76542    0.44062   1.00
C4       0.49194    1.01963    0.38463   1.00
C4       0.46609    0.96430    0.37052   1.00
C3       0.46907    1.06763    0.38557   1.00
C3       0.41944    0.95507    0.35477   1.00
C3       0.54434    1.02859    0.39844   1.00
C3       0.48754    0.91497    0.37211   1.00
C2       0.54918    1.13212    0.41293   1.00
C2       0.41737    0.85189    0.34230   1.00
C3       0.49714    1.12256    0.39924   1.00
C3       0.39524    0.90008    0.34116   1.00
C3       0.57109    1.08360    0.41238   1.00
C3       0.46481    0.86159    0.35772   1.00
H1       0.43119    1.06396    0.37639   1.00
H1       0.40200    0.98826    0.35264   1.00
C5       0.56947    0.98239    0.39831   1.00
C5       0.53200    0.91942    0.38792   1.00
H1       0.47891    1.15594    0.39913   1.00
H1       0.36111    0.89566    0.33018   1.00
H1       0.60731    1.08828    0.42257   1.00
H1       0.48401    0.82924    0.35827   1.00
O3       0.62731    0.99745    0.40917   1.00
O3       0.54260    0.86566    0.39219   1.00
Si1      0.70175    1.03651    0.39809   1.00
Si1      0.48894    0.80473    0.40704   1.00
C6       0.75159    1.05087    0.42009   1.00
C6       0.70652    0.97722    0.38183   1.00
C6       0.71982    1.11409    0.38651   1.00
C6       0.41789    0.80905    0.41628   1.00
C6       0.46051    0.73142    0.39202   1.00
C6       0.53625    0.79903    0.42739   1.00
C6       0.73245    1.08071    0.43879   1.00
H2       0.73812    0.99913    0.42448   1.00
C6       0.83157    1.09196    0.41906   1.00
H2       0.67064    0.92878    0.38893   1.00
C6       0.68180    0.97205    0.35941   1.00
C6       0.77551    0.97723    0.38036   1.00
H2       0.70614    1.13860    0.39844   1.00
C6       0.79608    1.16535    0.38103   1.00
C6       0.67912    1.11287    0.36704   1.00
C6       0.43159    0.87383    0.42853   1.00
C6       0.35680    0.79228    0.40172   1.00
H2       0.39606    0.76734    0.42724   1.00
H2       0.42924    0.73694    0.38042   1.00
C6       0.51687    0.72496    0.38012   1.00
C6       0.41426    0.66089    0.40243   1.00
H2       0.55812    0.76938    0.42126   1.00
C6       0.59866    0.86731    0.43463   1.00
C6       0.49681    0.76084    0.44705   1.00
H2       0.67878    1.04893    0.44289   1.00
H2       0.74192    1.13215    0.43568   1.00
H2       0.76207    1.08314    0.45218   1.00
H2       0.85286    1.07201    0.43022   1.00
H2       0.85130    1.08916    0.40428   1.00
H2       0.85242    1.14589    0.42263   1.00
H2       0.67365    0.92482    0.35236   1.00
H2       0.63339    0.97116    0.35844   1.00
H2       0.71946    1.01441    0.35028   1.00
H2       0.79262    0.97078    0.39524   1.00
H2       0.77024    0.93487    0.37104   1.00
H2       0.81530    1.02442    0.37353   1.00
H2       0.81772    1.14088    0.37176   1.00
H2       0.80176    1.20966    0.37267   1.00
H2       0.82698    1.18617    0.39458   1.00
H2       0.70269    1.10822    0.35315   1.00
H2       0.62666    1.07169    0.36697   1.00
H2       0.67776    1.16037    0.36592   1.00
H2       0.43954    0.91551    0.41855   1.00
H2       0.38791    0.86257    0.43818   1.00
H2       0.47575    0.89199    0.43844   1.00
H2       0.31329    0.78771    0.41027   1.00
H2       0.36972    0.83182    0.39039   1.00
H2       0.33861    0.74381    0.39388   1.00
H2       0.49367    0.68458    0.36872   1.00
H2       0.55096    0.77203    0.37202   1.00
H2       0.54774    0.71286    0.39013   1.00
H2       0.37200    0.65997    0.41065   1.00
H2       0.39187    0.62036    0.39104   1.00
H2       0.44338    0.64806    0.41296   1.00
H2       0.58359    0.90290    0.44046   1.00
H2       0.62748    0.85886    0.44644   1.00
H2       0.63335    0.89180    0.42204   1.00
H2       0.52968    0.75168    0.45717   1.00
H2       0.47892    0.79047    0.45547   1.00
H2       0.45289    0.71115    0.44359   1.00
C4       0.52770    0.50807    0.38463   1.00
C4       0.49821    0.53392    0.37052   1.00
C3       0.59859    0.53106    0.38561   1.00
C3       0.53568    0.58071    0.35481   1.00
C3       0.48424    0.45553    0.39841   1.00
C3       0.42739    0.51231    0.37208   1.00
C2       0.58295    0.45082    0.41293   1.00
C2       0.43453    0.58263    0.34230   1.00
C3       0.62545    0.50300    0.39928   1.00
C3       0.50490    0.60491    0.34120   1.00
C3       0.51249    0.42878    0.41234   1.00
C3       0.39675    0.53505    0.35768   1.00
H1       0.63281    0.56904    0.37646   1.00
H1       0.58634    0.59826    0.35271   1.00
C5       0.41288    0.43027    0.39823   1.00
C5       0.38734    0.46771    0.38786   1.00
H1       0.67707    0.52132    0.39919   1.00
H1       0.53464    0.63914    0.33025   1.00
H1       0.48093    0.39245    0.42251   1.00
H1       0.34518    0.51575    0.35821   1.00
O3       0.37011    0.37232    0.40906   1.00
O3       0.32289    0.45694    0.39209   1.00
Si1      0.33494    0.29796    0.39793   1.00
Si1      0.31540    0.51042    0.40696   1.00
C6       0.29938    0.24794    0.41989   1.00
C6       0.27092    0.29317    0.38164   1.00
C6       0.39463    0.28013    0.38636   1.00
C6       0.39061    0.58149    0.41626   1.00
C6       0.27050    0.53882    0.39194   1.00
C6       0.26229    0.46290    0.42727   1.00
C6       0.34825    0.26704    0.43862   1.00
H2       0.26100    0.26128    0.42428   1.00
C6       0.26064    0.16797    0.41881   1.00
H2       0.25822    0.32893    0.38875   1.00
C6       0.29059    0.31805    0.35924   1.00
C6       0.20203    0.22411    0.38011   1.00
H2       0.43274    0.29379    0.39831   1.00
C6       0.36982    0.20393    0.38084   1.00
C6       0.43419    0.32101    0.36693   1.00
C6       0.44171    0.56784    0.42852   1.00
C6       0.43496    0.64272    0.40174   1.00
H2       0.37059    0.60317    0.42722   1.00
H2       0.30734    0.57022    0.38037   1.00
C6       0.20782    0.48246    0.37999   1.00
C6       0.24601    0.58488    0.40235   1.00
H2       0.21081    0.44098    0.42111   1.00
C6       0.26826    0.40052    0.43449   1.00
C6       0.26332    0.50216    0.44695   1.00
H2       0.37000    0.32067    0.44275   1.00
H2       0.39030    0.25769    0.43553   1.00
H2       0.32100    0.23730    0.45199   1.00
H2       0.21932    0.14653    0.42995   1.00
H2       0.23822    0.14832    0.40402   1.00
H2       0.29377    0.14719    0.42239   1.00
H2       0.25149    0.32616    0.35217   1.00
H2       0.33805    0.36652    0.35831   1.00
H2       0.29544    0.28051    0.35009   1.00
H2       0.17837    0.20685    0.39498   1.00
H2       0.16495    0.22935    0.37078   1.00
H2       0.20958    0.18443    0.37328   1.00
H2       0.32377    0.18228    0.37154   1.00
H2       0.40856    0.19841    0.37249   1.00
H2       0.35970    0.17296    0.39438   1.00
H2       0.40610    0.29750    0.35301   1.00
H2       0.44536    0.37343    0.36689   1.00
H2       0.48312    0.32249    0.36583   1.00
H2       0.47557    0.56005    0.41855   1.00
H2       0.47400    0.61147    0.43820   1.00
H2       0.41571    0.52361    0.43840   1.00
H2       0.47378    0.68621    0.41032   1.00
H2       0.46171    0.62995    0.39042   1.00
H2       0.40465    0.66087    0.39390   1.00
H2       0.19064    0.50568    0.36859   1.00
H2       0.22095    0.44850    0.37188   1.00
H2       0.16480    0.45146    0.38997   1.00
H2       0.28725    0.62713    0.41061   1.00
H2       0.22788    0.60729    0.39097   1.00
H2       0.20401    0.55563    0.41286   1.00
H2       0.31890    0.41565    0.44034   1.00
H2       0.23094    0.37157    0.44627   1.00
H2       0.25821    0.36594    0.42188   1.00
H2       0.22124    0.46916    0.45704   1.00
H2       0.31078    0.52007    0.45540   1.00
H2       0.25746    0.54604    0.44350   1.00
C4       0.18727    0.35001    0.21908   1.00
C4       0.15789    0.29472    0.20495   1.00
C3       0.15265    0.35395    0.23653   1.00
C3       0.08901    0.24109    0.20585   1.00
C3       0.25463    0.40525    0.21555   1.00
C3       0.19919    0.29220    0.18900   1.00
C2       0.24894    0.46518    0.24637   1.00
C2       0.10186    0.18551    0.17554   1.00
C3       0.18244    0.41010    0.24975   1.00
C3       0.06190    0.18764    0.19166   1.00
C3       0.28427    0.46083    0.22927   1.00
C3       0.17010    0.23947    0.17436   1.00
H1       0.10486    0.31603    0.24019   1.00
H1       0.05638    0.23951    0.21675   1.00
C5       0.29206    0.40447    0.19839   1.00
C5       0.26908    0.34255    0.18761   1.00
H1       0.15476    0.41037    0.26204   1.00
H1       0.01190    0.14993    0.19316   1.00
H1       0.33332    0.49917    0.22685   1.00
H1       0.19913    0.24078    0.16230   1.00
O3       0.35195    0.46241    0.19319   1.00
O3       0.31287    0.33396    0.17495   1.00
Si1      0.35078    0.51576    0.17674   1.00
Si1      0.34799    0.29074    0.18317   1.00
C6       0.43649    0.58073    0.17977   1.00
C6       0.33697    0.47745    0.15262   1.00
C6       0.29403    0.54478    0.18336   1.00
C6       0.32588    0.25434    0.20766   1.00
C6       0.32290    0.22569    0.16505   1.00
C6       0.43697    0.34435    0.18129   1.00
C6       0.46167    0.60064    0.20220   1.00
H2       0.46427    0.55658    0.17383   1.00
C6       0.46558    0.65022    0.16810   1.00
H2       0.35627    0.44232    0.15473   1.00
C6       0.26185    0.43275    0.14501   1.00
C6       0.37710    0.52304    0.13407   1.00
H2       0.30659    0.55859    0.19930   1.00
C6       0.30373    0.61054    0.17245   1.00
C6       0.21499    0.49406    0.18245   1.00
C6       0.33790    0.30281    0.22602   1.00
C6       0.25455    0.18927    0.21121   1.00
H2       0.36164    0.23587    0.20991   1.00
H2       0.26837    0.19307    0.16775   1.00
C6       0.32930    0.24815    0.14231   1.00
C6       0.35504    0.17873    0.16662   1.00
H2       0.44805    0.34083    0.16536   1.00
C6       0.46479    0.42179    0.18509   1.00
C6       0.48374    0.32516    0.19382   1.00
H2       0.45349    0.55630    0.21101   1.00
H2       0.43502    0.62342    0.20984   1.00
H2       0.51634    0.63726    0.20278   1.00
H2       0.51930    0.66993    0.16440   1.00
H2       0.43888    0.64568    0.15398   1.00
H2       0.46343    0.68944    0.17719   1.00
H2       0.25943    0.40083    0.13223   1.00
H2       0.22860    0.39812    0.15669   1.00
H2       0.24096    0.46442    0.13989   1.00
H2       0.43204    0.54938    0.13666   1.00
H2       0.36798    0.49236    0.12037   1.00
H2       0.36164    0.56068    0.13082   1.00
H2       0.30358    0.60526    0.15598   1.00
H2       0.26355    0.62193    0.17643   1.00
H2       0.35103    0.65532    0.17702   1.00
H2       0.19403    0.49244    0.16742   1.00
H2       0.20054    0.44213    0.18641   1.00
H2       0.18870    0.51018    0.19309   1.00
H2       0.29595    0.31288    0.22789   1.00
H2       0.34176    0.27962    0.24014   1.00
H2       0.38492    0.35147    0.22450   1.00
H2       0.25233    0.16751    0.22619   1.00
H2       0.21308    0.20037    0.21053   1.00
H2       0.24411    0.14909    0.20026   1.00
H2       0.30204    0.20355    0.13249   1.00
H2       0.30672    0.28036    0.13977   1.00
H2       0.38229    0.27613    0.13730   1.00
H2       0.35104    0.15887    0.18194   1.00
H2       0.32841    0.13465    0.15656   1.00
H2       0.40870    0.20583    0.16219   1.00
H2       0.45445    0.43190    0.20047   1.00
H2       0.51971    0.45184    0.18247   1.00
H2       0.44086    0.44054    0.17465   1.00
H2       0.53694    0.35578    0.18903   1.00
H2       0.48154    0.33403    0.21003   1.00
H2       0.46943    0.27191    0.19170   1.00
C4       0.64328    0.83500    0.21668   1.00
C4       0.69985    0.86294    0.20299   1.00
C3       0.58072    0.83295    0.21259   1.00
C3       0.70179    0.89714    0.18473   1.00
C3       0.64941    0.80841    0.23570   1.00
C3       0.75797    0.85654    0.20762   1.00
C2       0.53253    0.78072    0.24557   1.00
C2       0.81678    0.91941    0.17634   1.00
C3       0.52699    0.80693    0.22668   1.00
C3       0.75836    0.92405    0.17167   1.00
C3       0.59414    0.78121    0.24954   1.00
C3       0.81561    0.88656    0.19469   1.00
H1       0.57227    0.85009    0.19923   1.00
H1       0.66235    0.90388    0.18044   1.00
C5       0.71058    0.80889    0.24073   1.00
C5       0.75861    0.82079    0.22519   1.00
H1       0.48313    0.80722    0.22294   1.00
H1       0.75667    0.94773    0.15858   1.00
H1       0.59858    0.76059    0.26289   1.00
H1       0.85847    0.88533    0.19887   1.00
O3       0.72059    0.79392    0.26025   1.00
O3       0.80777    0.80233    0.22787   1.00
Si1      0.76102    0.85548    0.27659   1.00
Si1      0.79601    0.73163    0.21763   1.00
C6       0.74547    0.80359    0.29818   1.00
C6       0.84806    0.89818    0.26991   1.00
C6       0.72497    0.90846    0.27934   1.00
C6       0.72198    0.68342    0.20282   1.00
C6       0.86865    0.75890    0.20238   1.00
C6       0.79980    0.68106    0.23733   1.00
C6       0.67000    0.74468    0.30114   1.00
H2       0.77448    0.77818    0.29473   1.00
C6       0.76997    0.83583    0.31979   1.00
H2       0.85235    0.85853    0.26177   1.00
C6       0.87489    0.95996    0.25496   1.00
C6       0.90252    0.92238    0.28724   1.00
H2       0.67076    0.87131    0.28102   1.00
C6       0.74549    0.95500    0.29864   1.00
C6       0.73083    0.95710    0.26148   1.00
C6       0.65108    0.65926    0.21295   1.00
C6       0.71779    0.70866    0.18102   1.00
H2       0.72368    0.63681    0.19997   1.00
H2       0.86118    0.78685    0.19011   1.00
C6       0.93843    0.81087    0.21233   1.00
C6       0.87926    0.70265    0.19211   1.00
H2       0.85433    0.70175    0.23978   1.00
C6       0.77137    0.68681    0.25832   1.00
C6       0.76930    0.60298    0.23328   1.00
H2       0.65121    0.71184    0.28778   1.00
H2       0.63593    0.76491    0.30402   1.00
H2       0.66574    0.71193    0.31390   1.00
H2       0.78387    0.80419    0.32886   1.00
H2       0.81414    0.88686    0.31929   1.00
H2       0.73006    0.83895    0.32820   1.00
H2       0.92456    0.97227    0.24875   1.00
H2       0.84112    0.94906    0.24203   1.00
H2       0.88116    1.00549    0.26262   1.00
H2       0.89426    0.88008    0.29704   1.00
H2       0.95403    0.94330    0.28108   1.00
H2       0.90181    0.96211    0.29645   1.00
H2       0.80084    0.98618    0.30002   1.00
H2       0.72459    0.98936    0.29836   1.00
H2       0.72516    0.92493    0.31236   1.00
H2       0.77797    1.00621    0.26225   1.00
H2       0.72907    0.93608    0.24659   1.00
H2       0.68860    0.96748    0.26218   1.00
H2       0.63721    0.69888    0.21257   1.00
H2       0.61104    0.61517    0.20489   1.00
H2       0.64972    0.64384    0.22866   1.00
H2       0.67378    0.66907    0.17280   1.00
H2       0.71205    0.75356    0.18136   1.00
H2       0.76247    0.72037    0.17188   1.00
H2       0.97845    0.83346    0.20081   1.00
H2       0.93586    0.85293    0.21959   1.00
H2       0.95446    0.78674    0.22370   1.00
H2       0.83345    0.66496    0.18421   1.00
H2       0.92000    0.72540    0.18079   1.00
H2       0.89369    0.67628    0.20319   1.00
H2       0.71709    0.66990    0.25769   1.00
H2       0.77927    0.65706    0.26994   1.00
H2       0.79796    0.73951    0.26335   1.00
H2       0.78397    0.57953    0.24529   1.00
H2       0.71363    0.57631    0.23271   1.00
H2       0.78784    0.59361    0.21907   1.00
C4       0.16394    0.80734    0.21671   1.00
C4       0.13613    0.83620    0.20306   1.00
C3       0.15431    0.74071    0.21452   1.00
C3       0.09090    0.79923    0.18698   1.00
C3       0.20278    0.84645    0.23373   1.00
C3       0.15428    0.90593    0.20543   1.00
C2       0.21902    0.75140    0.24552   1.00
C2       0.08085    0.89780    0.17639   1.00
C3       0.18074    0.71333    0.22858   1.00
C3       0.06450    0.82932    0.17389   1.00
C3       0.23009    0.81837    0.24753   1.00
C3       0.12484    0.93443    0.19262   1.00
H1       0.12801    0.71020    0.20260   1.00
H1       0.07546    0.74924    0.18437   1.00
C5       0.21433    0.91344    0.23680   1.00
C5       0.20119    0.94672    0.22066   1.00
H1       0.17171    0.66466    0.22629   1.00
H1       0.03248    0.80028    0.16241   1.00
H1       0.25943    0.84771    0.25935   1.00
H1       0.13493    0.98307    0.19533   1.00
O3       0.24175    0.94650    0.25486   1.00
O3       0.22970    1.01680    0.22070   1.00
Si1      0.19140    0.94198    0.27326   1.00
Si1      0.29729    1.06283    0.20689   1.00
C6       0.25493    0.98184    0.29203   1.00
C6       0.15632    0.99331    0.26643   1.00
C6       0.13126    0.85747    0.28017   1.00
C6       0.32914    1.02036    0.19182   1.00
C6       0.27187    1.10868    0.19116   1.00
C6       0.36145    1.12123    0.22326   1.00
C6       0.30700    0.95562    0.29390   1.00
H2       0.28450    1.03387    0.28625   1.00
C6       0.23579    0.98904    0.31442   1.00
H2       0.19469    1.02960    0.25597   1.00
C6       0.08751    0.95966    0.25442   1.00
C6       0.14812    1.03761    0.28320   1.00
H2       0.16298    0.83380    0.28137   1.00
C6       0.09521    0.84656    0.30124   1.00
C6       0.07158    0.81193    0.26519   1.00
C6       0.34890    0.97122    0.20263   1.00
C6       0.29059    0.98324    0.17192   1.00
H2       0.37718    1.06258    0.18626   1.00
H2       0.23488    1.07006    0.18092   1.00
C6       0.23291    1.14102    0.20179   1.00
C6       0.32766    1.16558    0.17745   1.00
H2       0.34930    1.16188    0.22517   1.00
C6       0.36178    1.09552    0.24517   1.00
C6       0.43713    1.15678    0.21571   1.00
H2       0.33191    0.95885    0.27943   1.00
H2       0.28183    0.90258    0.29898   1.00
H2       0.34751    0.98629    0.30472   1.00
H2       0.27604    1.03635    0.32110   1.00
H2       0.18846    0.99014    0.31550   1.00
H2       0.23065    0.94766    0.32414   1.00
H2       0.07900    0.99863    0.24746   1.00
H2       0.08714    0.92750    0.24210   1.00
H2       0.04433    0.92912    0.26440   1.00
H2       0.19657    1.07119    0.29067   1.00
H2       0.13082    1.07085    0.27672   1.00
H2       0.11079    1.00555    0.29460   1.00
H2       0.07155    0.87820    0.30267   1.00
H2       0.05552    0.79344    0.30360   1.00
H2       0.13089    0.85818    0.31366   1.00
H2       0.02739    0.81848    0.26731   1.00
H2       0.08584    0.82198    0.24935   1.00
H2       0.05443    0.75801    0.26780   1.00
H2       0.30469    0.92081    0.20497   1.00
H2       0.38513    0.96434    0.19339   1.00
H2       0.37306    0.99082    0.21726   1.00
H2       0.32137    0.96805    0.16291   1.00
H2       0.24244    0.93711    0.17503   1.00
H2       0.28043    1.01609    0.16219   1.00
H2       0.20930    1.15807    0.19048   1.00
H2       0.19181    1.10400    0.21146   1.00
H2       0.26674    1.18494    0.21110   1.00
H2       0.35631    1.14690    0.16892   1.00
H2       0.30410    1.18334    0.16634   1.00
H2       0.36347    1.20966    0.18640   1.00
H2       0.37092    1.05260    0.24528   1.00
H2       0.40042    1.13592    0.25466   1.00
H2       0.31282    1.07898    0.25235   1.00
H2       0.47037    1.19893    0.22574   1.00
H2       0.45640    1.12115    0.21535   1.00
H2       0.44258    1.17834    0.20058   1.00
C4       1.01691    0.51983    0.61434   1.00
C4       0.96169    0.49069    0.62849   1.00
C3       1.02716    0.48162    0.59907   1.00
C3       0.91492    0.41962    0.62999   1.00
C3       1.06550    0.59093    0.61556   1.00
C3       0.95202    0.53452    0.64195   1.00
C2       1.13175    0.58189    0.58693   1.00
C2       0.85226    0.43559    0.65784   1.00
C3       1.08319    0.51166    0.58582   1.00
C3       0.86132    0.39285    0.64413   1.00
C3       1.12097    0.62052    0.60180   1.00
C3       0.89947    0.50626    0.65666   1.00
H1       0.99410    0.43089    0.59709   1.00
H1       0.91867    0.38518    0.62095   1.00
C5       1.05822    0.63205    0.63047   1.00
C5       0.99512    0.60619    0.64081   1.00
H1       1.08823    0.48138    0.57518   1.00
H1       0.82871    0.34109    0.64441   1.00
H1       1.15436    0.67193    0.60250   1.00
H1       0.89592    0.53792    0.66703   1.00
O3       1.11074    0.69754    0.63382   1.00
O3       0.97875    0.64988    0.65073   1.00
Si1      1.16705    0.71201    0.65145   1.00
Si1      0.92773    0.67123    0.63964   1.00
C6       1.22358    0.79837    0.64546   1.00
C6       1.12713    0.70394    0.67506   1.00
C6       1.20689    0.66246    0.64871   1.00
C6       0.89340    0.63491    0.61573   1.00
C6       0.86127    0.64616    0.65726   1.00
C6       0.97140    0.76088    0.63802   1.00
C6       1.24207    0.81454    0.62244   1.00
H2       1.19334    0.82224    0.64922   1.00
C6       1.29276    0.84066    0.65715   1.00
H2       1.08685    0.71492    0.67106   1.00
C6       1.09042    0.63233    0.68552   1.00
C6       1.16883    0.75541    0.69236   1.00
H2       1.22048    0.66907    0.63264   1.00
C6       1.27506    0.68631    0.66061   1.00
C6       1.16467    0.58344    0.65261   1.00
C6       0.94415    0.64547    0.59816   1.00
C6       0.83491    0.55868    0.61446   1.00
H2       0.86840    0.66334    0.61111   1.00
H2       0.83482    0.59058    0.65673   1.00
C6       0.88319    0.66533    0.67993   1.00
C6       0.80640    0.66711    0.65279   1.00
H2       0.96523    0.77723    0.65307   1.00
C6       1.05000    0.79658    0.63470   1.00
C6       0.94447    0.79468    0.62264   1.00
H2       1.19642    0.79636    0.61309   1.00
H2       1.27075    0.79075    0.61692   1.00
H2       1.27291    0.86946    0.61984   1.00
H2       1.30550    0.89391    0.65840   1.00
H2       1.29128    0.82194    0.67243   1.00
H2       1.33535    0.84097    0.64927   1.00
H2       1.05613    0.63064    0.69748   1.00
H2       1.05905    0.59177    0.67492   1.00
H2       1.12712    0.62066    0.69250   1.00
H2       1.18876    0.80807    0.68749   1.00
H2       1.13684    0.74827    0.70561   1.00
H2       1.21117    0.74879    0.69734   1.00
H2       1.26867    0.69246    0.67674   1.00
H2       1.29347    0.65008    0.65914   1.00
H2       1.31591    0.73411    0.65466   1.00
H2       1.16539    0.57076    0.66855   1.00
H2       1.11164    0.56049    0.64819   1.00
H2       1.18633    0.55763    0.64393   1.00
H2       0.96132    0.60834    0.59884   1.00
H2       0.91950    0.63918    0.58343   1.00
H2       0.98889    0.69628    0.59834   1.00
H2       0.81274    0.54676    0.59923   1.00
H2       0.85298    0.52326    0.61764   1.00
H2       0.79311    0.54766    0.62482   1.00
H2       0.83926    0.63792    0.68999   1.00
H2       0.92084    0.65110    0.68446   1.00
H2       0.90480    0.71978    0.68271   1.00
H2       0.78654    0.65373    0.63738   1.00
H2       0.76292    0.64046    0.66306   1.00
H2       0.82700    0.72178    0.65495   1.00
H2       1.06307    0.78217    0.62033   1.00
H2       1.07365    0.85207    0.63507   1.00
H2       1.07312    0.78244    0.64678   1.00
H2       0.96887    0.84965    0.62526   1.00
H2       0.95502    0.78708    0.60698   1.00
H2       0.88972    0.77428    0.62418   1.00
C4       0.50338    -0.01678   0.61429   1.00
C4       0.52938    0.03847    0.62844   1.00
C3       0.45932    -0.02401   0.59798   1.00
C3       0.50905    0.08849    0.62880   1.00
C3       0.52127    -0.06856   0.61663   1.00
C3       0.57861    0.04473    0.64309   1.00
C2       0.45027    -0.13179   0.58695   1.00
C2       0.58318    0.14778    0.65782   1.00
C3       0.43317    -0.08009   0.58474   1.00
C3       0.53566    0.14202    0.64296   1.00
C3       0.49536    -0.12408   0.60289   1.00
C3       0.60259    0.09735    0.65777   1.00
H1       0.44513    0.01139    0.59519   1.00
H1       0.47401    0.08728    0.61887   1.00
C5       0.56514    -0.06440   0.63262   1.00
C5       0.60323    -0.00180   0.64315   1.00
H1       0.40112    -0.08285   0.57331   1.00
H1       0.51954    0.17705    0.64239   1.00
H1       0.51015    -0.15984   0.60441   1.00
H1       0.63447    0.09857    0.66895   1.00
O3       0.57313    -0.11958   0.63688   1.00
O3       0.65998    0.01092    0.65436   1.00
Si1      0.52521    -0.17479   0.65406   1.00
Si1      0.73547    0.05854    0.64452   1.00
C6       0.55111    -0.23529   0.64947   1.00
C6       0.55367    -0.13574   0.67795   1.00
C6       0.43710    -0.20969   0.64955   1.00
C6       0.74106    0.09411    0.62024   1.00
C6       0.77625    0.12434    0.66238   1.00
C6       0.77686    0.01020    0.64455   1.00
C6       0.55242    -0.25427   0.62666   1.00
H2       0.60444    -0.20783   0.65423   1.00
C6       0.51788    -0.30487   0.66124   1.00
H2       0.60663    -0.09771   0.67478   1.00
C6       0.52056    -0.09534   0.68709   1.00
C6       0.55644    -0.17947   0.69592   1.00
H2       0.43283    -0.22327   0.63349   1.00
C6       0.38716    -0.27700   0.66108   1.00
C6       0.40395    -0.16348   0.65204   1.00
C6       0.70253    0.04446    0.60229   1.00
C6       0.72845    0.15578    0.61787   1.00
H2       0.79512    0.11618    0.61669   1.00
H2       0.75026    0.15370    0.66082   1.00
C6       0.76726    0.10193    0.68517   1.00
C6       0.85393    0.17571    0.65920   1.00
H2       0.79576    0.01502    0.66005   1.00
C6       0.73075    -0.06801   0.64106   1.00
C6       0.84036    0.03374    0.63042   1.00
H2       0.58403    -0.20905   0.61750   1.00
H2       0.50114    -0.28024   0.62017   1.00
H2       0.57389    -0.28783   0.62502   1.00
H2       0.55561    -0.32087   0.66364   1.00
H2       0.49821    -0.30210   0.67603   1.00
H2       0.47590    -0.34592   0.65281   1.00
H2       0.55180    -0.06218   0.69945   1.00
H2       0.51622    -0.06231   0.67594   1.00
H2       0.47003    -0.12986   0.69326   1.00
H2       0.58749    -0.20237   0.69210   1.00
H2       0.57980    -0.14813   0.70939   1.00
H2       0.50535    -0.21978   0.70014   1.00
H2       0.39626    -0.27125   0.67741   1.00
H2       0.33369    -0.29219   0.65845   1.00
H2       0.39219    -0.31970   0.65578   1.00
H2       0.38766    -0.16326   0.66761   1.00
H2       0.43755    -0.11081   0.64778   1.00
H2       0.35864    -0.18255   0.64244   1.00
H2       0.64902    0.03053    0.60180   1.00
H2       0.72503    0.06861    0.58778   1.00
H2       0.70513    -0.00219   0.60312   1.00
H2       0.74309    0.17794    0.60269   1.00
H2       0.67511    0.14087    0.61991   1.00
H2       0.75881    0.19683    0.62850   1.00
H2       0.78413    0.14617    0.69511   1.00
H2       0.71379    0.06667    0.68882   1.00
H2       0.79667    0.07730    0.68901   1.00
H2       0.86481    0.19575    0.64376   1.00
H2       0.87102    0.21947    0.66937   1.00
H2       0.88472    0.15204    0.66243   1.00
H2       0.70646    -0.07961   0.62619   1.00
H2       0.75957    -0.09467   0.64249   1.00
H2       0.69076    -0.08927   0.65243   1.00
H2       0.86742    0.00639    0.63407   1.00
H2       0.82547    0.02408    0.61447   1.00
H2       0.87693    0.08790    0.63220   1.00
C4       0.47984    0.49663    0.61430   1.00
C4       0.50909    0.47064    0.62844   1.00
C3       0.51673    0.54084    0.59801   1.00
C3       0.57947    0.49109    0.62884   1.00
C3       0.41011    0.47859    0.61660   1.00
C3       0.46609    0.42126    0.64305   1.00
C2       0.41794    0.54973    0.58694   1.00
C2       0.56458    0.41682    0.65783   1.00
C3       0.48679    0.56699    0.58478   1.00
C3       0.60638    0.46448    0.64300   1.00
C3       0.38050    0.50449    0.60286   1.00
C3       0.49471    0.39727    0.65774   1.00
H1       0.56636    0.55515    0.59525   1.00
H1       0.61332    0.52624    0.61894   1.00
C5       0.37035    0.43457    0.63256   1.00
C5       0.39491    0.39651    0.64307   1.00
H1       0.51612    0.59915    0.57337   1.00
H1       0.65757    0.48071    0.64245   1.00
H1       0.32992    0.48960    0.60435   1.00
H1       0.46401    0.36528    0.66889   1.00
O3       0.30710    0.42641    0.63679   1.00
O3       0.35088    0.33964    0.65424   1.00
Si1      0.29957    0.47414    0.65398   1.00
Si1      0.32322    0.26424    0.64436   1.00
C6       0.21317    0.44810    0.64934   1.00
C6       0.31008    0.44557    0.67787   1.00
C6       0.35267    0.56230    0.64953   1.00
C6       0.35342    0.25890    0.62009   1.00
C6       0.34824    0.22344    0.66221   1.00
C6       0.23347    0.22269    0.64434   1.00
C6       0.19301    0.44691    0.62653   1.00
H2       0.18735    0.39474    0.65407   1.00
C6       0.17662    0.48113    0.66112   1.00
H2       0.29527    0.39265    0.67467   1.00
C6       0.38353    0.47874    0.68705   1.00
C6       0.26341    0.44257    0.69581   1.00
H2       0.34346    0.56666    0.63347   1.00
C6       0.33509    0.61206    0.66107   1.00
C6       0.43203    0.59558    0.65207   1.00
C6       0.34231    0.29749    0.60215   1.00
C6       0.42777    0.27168    0.61775   1.00
H2       0.32154    0.20485    0.61650   1.00
H2       0.40360    0.24953    0.66069   1.00
C6       0.33463    0.23223    0.68500   1.00
C6       0.32210    0.14581    0.65899   1.00
H2       0.21932    0.20368    0.65982   1.00
C6       0.20126    0.26870    0.64086   1.00
C6       0.19372    0.15928    0.63017   1.00
H2       0.20677    0.41543    0.61736   1.00
H2       0.21827    0.49823    0.62007   1.00
H2       0.13797    0.42534    0.62485   1.00
H2       0.12290    0.44330    0.66348   1.00
H2       0.19894    0.50073    0.67592   1.00
H2       0.17751    0.52312    0.65270   1.00
H2       0.38544    0.44746    0.69939   1.00
H2       0.42102    0.48325    0.67591   1.00
H2       0.39941    0.52921    0.69324   1.00
H2       0.20950    0.41146    0.69196   1.00
H2       0.27135    0.41916    0.70928   1.00
H2       0.27406    0.49360    0.70006   1.00
H2       0.33165    0.60285    0.67740   1.00
H2       0.37332    0.66558    0.65849   1.00
H2       0.28736    0.60697    0.65575   1.00
H2       0.44841    0.61178    0.66765   1.00
H2       0.45123    0.56209    0.64780   1.00
H2       0.45826    0.64096    0.64250   1.00
H2       0.38182    0.35102    0.60170   1.00
H2       0.34411    0.27511    0.58763   1.00
H2       0.29300    0.29476    0.60297   1.00
H2       0.43544    0.25718    0.60257   1.00
H2       0.46610    0.32503    0.61983   1.00
H2       0.43847    0.24131    0.62838   1.00
H2       0.36200    0.21537    0.69495   1.00
H2       0.35271    0.28565    0.68868   1.00
H2       0.28056    0.20270    0.68881   1.00
H2       0.33140    0.13507    0.64355   1.00
H2       0.34877    0.12873    0.66916   1.00
H2       0.26762    0.11491    0.66219   1.00
H2       0.21401    0.29310    0.62600   1.00
H2       0.14577    0.23978    0.64225   1.00
H2       0.21984    0.30860    0.65225   1.00
H2       0.13928    0.13210    0.63379   1.00
H2       0.19903    0.17427    0.61422   1.00
H2       0.21140    0.12277    0.63193   1.00
C4       0.47802    -0.02277   0.11642   1.00
C4       0.50774    0.03401    0.13002   1.00
C3       0.50331    -0.06835   0.11371   1.00
C3       0.56920    0.05450    0.14086   1.00
C3       0.42040    -0.03453   0.10456   1.00
C3       0.47456    0.07279    0.13313   1.00
C2       0.41714    -0.13440   0.08787   1.00
C2       0.56538    0.15039    0.15690   1.00
C3       0.47399    -0.12240   0.09975   1.00
C3       0.59692    0.11069    0.15407   1.00
C3       0.39077    -0.09010   0.09083   1.00
C3       0.50487    0.13097    0.14584   1.00
H1       0.54363    -0.06375   0.12185   1.00
H1       0.59586    0.02948    0.13937   1.00
C5       0.39258    0.00912    0.10654   1.00
C5       0.41169    0.05379    0.12343   1.00
H1       0.49478    -0.15340   0.09834   1.00
H1       0.64117    0.12279    0.16164   1.00
H1       0.34831    -0.09903   0.08284   1.00
H1       0.48280    0.16073    0.14690   1.00
O3       0.34469    0.00471    0.09279   1.00
O3       0.37225    0.08175    0.12923   1.00
Si1      0.36889    0.05411    0.07285   1.00
Si1      0.31987    0.04795    0.14828   1.00
C6       0.28911    0.01557    0.06047   1.00
C6       0.39271    0.13709    0.08116   1.00
C6       0.43075    0.04794    0.05815   1.00
C6       0.31831    -0.02127   0.16118   1.00
C6       0.34580    0.11674    0.16507   1.00
C6       0.23769    0.02472    0.13940   1.00
C6       0.25049    -0.06426   0.05925   1.00
H2       0.25864    0.02778    0.07064   1.00
C6       0.28106    0.04001    0.03888   1.00
H2       0.36324    0.12685    0.09511   1.00
C6       0.46874    0.18589    0.08732   1.00
C6       0.37278    0.18162    0.06781   1.00
H2       0.40893    -0.00723   0.05685   1.00
C6       0.44204    0.07584    0.03590   1.00
C6       0.50494    0.07695    0.06674   1.00
C6       0.30264    -0.08602   0.14858   1.00
C6       0.37808    -0.00780   0.17590   1.00
H2       0.27471    -0.03777   0.17131   1.00
H2       0.39511    0.12605    0.17063   1.00
C6       0.35990    0.18579    0.15541   1.00
C6       0.30054    0.10516    0.18423   1.00
H2       0.23650    0.07231    0.13972   1.00
C6       0.22167    -0.00012   0.11698   1.00
C6       0.17490    -0.02763   0.15220   1.00
H2       0.24359    -0.08720   0.07427   1.00
H2       0.27825    -0.08209   0.04987   1.00
H2       0.19955    -0.08425   0.05279   1.00
H2       0.23061    0.03491    0.03741   1.00
H2       0.31861    0.09297    0.03587   1.00
H2       0.28514    0.00942    0.02674   1.00
H2       0.47371    0.22914    0.09609   1.00
H2       0.48856    0.16057    0.09687   1.00
H2       0.50132    0.20638    0.07397   1.00
H2       0.31794    0.15576    0.06505   1.00
H2       0.38578    0.22964    0.07537   1.00
H2       0.39949    0.19420    0.05327   1.00
H2       0.45283    0.12854    0.03558   1.00
H2       0.48443    0.07427    0.02844   1.00
H2       0.39784    0.04483    0.02645   1.00
H2       0.53763    0.13094    0.06323   1.00
H2       0.50657    0.07170    0.08303   1.00
H2       0.52876    0.04985    0.05999   1.00
H2       0.34813    -0.08030   0.14112   1.00
H2       0.28359    -0.13064   0.15847   1.00
H2       0.26387    -0.09784   0.13706   1.00
H2       0.36518    -0.05349   0.18479   1.00
H2       0.42508    0.00578    0.16783   1.00
H2       0.38852    0.03242    0.18683   1.00
H2       0.38655    0.22763    0.16621   1.00
H2       0.39256    0.19853    0.14203   1.00
H2       0.31291    0.18457    0.15095   1.00
H2       0.28970    0.05881    0.19234   1.00
H2       0.32679    0.14754    0.19489   1.00
H2       0.25223    0.10195    0.18020   1.00
H2       0.22387    -0.04657   0.11446   1.00
H2       0.17135    -0.00963   0.11232   1.00
H2       0.25855    0.03894    0.10695   1.00
H2       0.12807    -0.02978   0.14691   1.00
H2       0.16757    -0.07902   0.15105   1.00
H2       0.18043    -0.01352   0.16818   1.00
C4       1.02021    0.49223    0.11558   1.00
C4       0.96478    0.46647    0.12965   1.00
C3       1.07379    0.47695    0.11658   1.00
C3       0.96065    0.42805    0.14716   1.00
C3       1.02332    0.53664    0.09972   1.00
C3       0.91000    0.47934    0.12617   1.00
C2       1.13230    0.54907    0.08714   1.00
C2       0.85171    0.41748    0.15763   1.00
C3       1.12850    0.50487    0.10283   1.00
C3       0.90538    0.40367    0.16067   1.00
C3       1.07829    0.56326    0.08578   1.00
C3       0.85624    0.45681    0.14043   1.00
H1       1.07452    0.44490    0.12729   1.00
H1       0.99786    0.41701    0.15068   1.00
C5       0.97137    0.55395    0.09786   1.00
C5       0.90937    0.51509    0.10861   1.00
H1       1.16605    0.49238    0.10440   1.00
H1       0.90483    0.37565    0.17299   1.00
H1       1.07885    0.59353    0.07415   1.00
H1       0.81968    0.47017    0.13841   1.00
O3       0.98020    0.60527    0.08480   1.00
O3       0.85130    0.51638    0.10287   1.00
Si1      1.01203    0.68313    0.09324   1.00
Si1      0.79383    0.45349    0.08936   1.00
C6       1.02127    0.72284    0.06949   1.00
C6       0.94856    0.68592    0.10801   1.00
C6       1.09158    0.71409    0.10541   1.00
C6       0.80739    0.38503    0.08343   1.00
C6       0.71972    0.42337    0.10410   1.00
C6       0.78218    0.48890    0.06697   1.00
C6       1.05545    0.70208    0.05237   1.00
H2       0.96834    0.70212    0.06473   1.00
C6       1.05469    0.80236    0.06775   1.00
H2       0.90197    0.64393    0.10163   1.00
C6       0.94589    0.67075    0.13124   1.00
C6       0.93995    0.75017    0.10641   1.00
H2       1.11934    0.70020    0.09466   1.00
C6       1.13615    0.79313    0.10844   1.00
C6       1.09511    0.68357    0.12649   1.00
C6       0.87429    0.40148    0.07193   1.00
C6       0.79710    0.33186    0.10026   1.00
H2       0.76619    0.35545    0.07273   1.00
H2       0.72929    0.39951    0.11710   1.00
C6       0.70570    0.47899    0.11328   1.00
C6       0.65112    0.36774    0.09449   1.00
H2       0.74804    0.50754    0.07151   1.00
C6       0.84662    0.55263    0.05833   1.00
C6       0.74702    0.44029    0.04849   1.00
H2       1.02863    0.64693    0.05008   1.00
H2       1.10857    0.71861    0.05602   1.00
H2       1.05450    0.72479    0.03782   1.00
H2       1.03110    0.81531    0.05536   1.00
H2       1.04907    0.82569    0.08147   1.00
H2       1.10911    0.82723    0.06432   1.00
H2       0.89691    0.65975    0.13769   1.00
H2       0.95097    0.62630    0.13433   1.00
H2       0.98582    0.71435    0.13944   1.00
H2       0.93119    0.75963    0.09077   1.00
H2       0.89572    0.74330    0.11507   1.00
H2       0.98475    0.79551    0.11231   1.00
H2       1.10746    0.81339    0.11621   1.00
H2       1.18214    0.80718    0.11733   1.00
H2       1.15447    0.81931    0.09403   1.00
H2       1.08707    0.70988    0.13914   1.00
H2       1.05814    0.62986    0.12810   1.00
H2       1.14546    0.68884    0.12858   1.00
H2       0.91720    0.41788    0.08227   1.00
H2       0.86798    0.35613    0.06408   1.00
H2       0.88810    0.44091    0.06049   1.00
H2       0.79782    0.28793    0.09363   1.00
H2       0.83711    0.35308    0.11168   1.00
H2       0.74806    0.31173    0.10791   1.00
H2       0.66578    0.45659    0.12484   1.00
H2       0.75107    0.51952    0.12070   1.00
H2       0.68920    0.50222    0.10175   1.00
H2       0.65553    0.32555    0.08819   1.00
H2       0.61094    0.34607    0.10599   1.00
H2       0.63407    0.38907    0.08250   1.00
H2       0.88618    0.54114    0.05391   1.00
H2       0.83426    0.57377    0.04518   1.00
H2       0.86799    0.59247    0.06975   1.00
H2       0.73337    0.46571    0.03683   1.00
H2       0.78067    0.42447    0.04150   1.00
H2       0.69995    0.39463    0.05292   1.00
C4       0.50807    0.52769    0.11536   1.00
C4       0.53392    0.49821    0.12947   1.00
C3       0.53119    0.59860    0.11435   1.00
C3       0.58085    0.53572    0.14516   1.00
C3       0.45541    0.48421    0.10163   1.00
C3       0.51218    0.42735    0.12795   1.00
C2       0.45082    0.58294    0.08707   1.00
C2       0.58263    0.43454    0.15770   1.00
C3       0.50312    0.62546    0.10068   1.00
C3       0.60504    0.50493    0.15877   1.00
C3       0.42865    0.51246    0.08769   1.00
C3       0.53492    0.39672    0.14235   1.00
H1       0.56926    0.63284    0.12347   1.00
H1       0.59850    0.58641    0.14723   1.00
C5       0.43002    0.41283    0.10184   1.00
C5       0.46744    0.38725    0.11221   1.00
H1       0.52153    0.67710    0.10074   1.00
H1       0.63938    0.53471    0.16970   1.00
H1       0.39223    0.48088    0.07755   1.00
H1       0.51553    0.34513    0.14185   1.00
O3       0.37197    0.37007    0.09105   1.00
O3       0.45652    0.32273    0.10800   1.00
Si1      0.29769    0.33509    0.10222   1.00
Si1      0.50983    0.31502    0.09311   1.00
C6       0.24751    0.29946    0.08029   1.00
C6       0.29287    0.27112    0.11853   1.00
C6       0.28008    0.39496    0.11377   1.00
C6       0.58092    0.39011    0.08375   1.00
C6       0.53820    0.27011    0.10814   1.00
C6       0.46210    0.26183    0.07284   1.00
C6       0.26657    0.34822    0.06153   1.00
H2       0.26072    0.26098    0.07591   1.00
C6       0.16755    0.26085    0.08142   1.00
H2       0.32852    0.25828    0.11141   1.00
C6       0.31792    0.29090    0.14092   1.00
C6       0.22375    0.20232    0.12012   1.00
H2       0.29373    0.43301    0.10180   1.00
C6       0.20395    0.37032    0.11933   1.00
C6       0.32113    0.43460    0.13317   1.00
C6       0.56731    0.44120    0.07148   1.00
C6       0.64227    0.43446    0.09823   1.00
H2       0.60246    0.36994    0.07279   1.00
H2       0.56972    0.30699    0.11968   1.00
C6       0.48184    0.20755    0.12013   1.00
C6       0.58409    0.24543    0.09772   1.00
H2       0.44014    0.21038    0.07903   1.00
C6       0.39976    0.26789    0.06565   1.00
C6       0.50120    0.26265    0.05315   1.00
H2       0.32016    0.36986    0.05738   1.00
H2       0.25734    0.39036    0.06462   1.00
H2       0.23671    0.32092    0.04819   1.00
H2       0.14597    0.21947    0.07031   1.00
H2       0.14796    0.23855    0.09623   1.00
H2       0.14684    0.29404    0.07784   1.00
H2       0.32598    0.25179    0.14800   1.00
H2       0.36645    0.33831    0.14181   1.00
H2       0.28049    0.29590    0.15008   1.00
H2       0.20636    0.17857    0.10527   1.00
H2       0.22897    0.16524    0.12946   1.00
H2       0.18417    0.21000    0.12696   1.00
H2       0.18229    0.32432    0.12866   1.00
H2       0.19857    0.40916    0.12767   1.00
H2       0.17290    0.36017    0.10581   1.00
H2       0.29768    0.40661    0.14711   1.00
H2       0.37352    0.44567    0.13319   1.00
H2       0.32272    0.48358    0.13426   1.00
H2       0.55966    0.47518    0.08144   1.00
H2       0.61090    0.47337    0.06177   1.00
H2       0.52300    0.41521    0.06163   1.00
H2       0.68574    0.47318    0.08962   1.00
H2       0.62965    0.46133    0.10955   1.00
H2       0.66039    0.40413    0.10608   1.00
H2       0.50507    0.19039    0.13153   1.00
H2       0.44800    0.22083    0.12826   1.00
H2       0.45072    0.16450    0.11018   1.00
H2       0.62633    0.28657    0.08942   1.00
H2       0.60651    0.22730    0.10910   1.00
H2       0.55471    0.20338    0.08724   1.00
H2       0.41495    0.31852    0.05977   1.00
H2       0.37069    0.23052    0.05389   1.00
H2       0.36528    0.25799    0.07827   1.00
H2       0.46808    0.22054    0.04309   1.00
H2       0.51914    0.31007    0.04467   1.00
H2       0.54504    0.25671    0.05658   1.00
C4       0.64410    0.81182    0.71700   1.00
C4       0.70089    0.84143    0.70340   1.00
C3       0.60213    0.84058    0.72101   1.00
C3       0.72512    0.90578    0.69391   1.00
C3       0.62855    0.75058    0.72749   1.00
C3       0.73575    0.80512    0.69888   1.00
C2       0.53226    0.75066    0.74547   1.00
C2       0.81705    0.89854    0.67644   1.00
C3       0.54799    0.81110    0.73493   1.00
C3       0.78119    0.93330    0.68065   1.00
C3       0.57292    0.72094    0.74119   1.00
C3       0.79392    0.83505    0.68616   1.00
H1       0.60952    0.88366    0.71388   1.00
H1       0.70301    0.93476    0.69644   1.00
C5       0.66848    0.71918    0.72417   1.00
C5       0.71285    0.73946    0.70719   1.00
H1       0.51970    0.83446    0.73733   1.00
H1       0.79608    0.97977    0.67408   1.00
H1       0.56120    0.67599    0.74819   1.00
H1       0.82092    0.81038    0.68411   1.00
O3       0.66069    0.66703    0.73669   1.00
O3       0.73686    0.69805    0.69997   1.00
Si1      0.70992    0.68402    0.75649   1.00
Si1      0.70056    0.65067    0.68009   1.00
C6       0.66699    0.60171    0.76731   1.00
C6       0.79145    0.70449    0.74765   1.00
C6       0.70848    0.74501    0.77286   1.00
C6       0.63393    0.65690    0.66818   1.00
C6       0.76863    0.67622    0.66304   1.00
C6       0.67219    0.56558    0.68713   1.00
C6       0.58741    0.56732    0.76865   1.00
H2       0.67652    0.57167    0.75620   1.00
C6       0.68985    0.58685    0.78827   1.00
H2       0.77947    0.67793    0.73311   1.00
C6       0.84395    0.78081    0.74279   1.00
C6       0.83276    0.67776    0.75980   1.00
H2       0.65385    0.72616    0.77437   1.00
C6       0.73608    0.74971    0.79494   1.00
C6       0.74182    0.82138    0.76581   1.00
C6       0.57051    0.64257    0.68126   1.00
C6       0.65129    0.72087    0.65486   1.00
H2       0.61490    0.61535    0.65718   1.00
H2       0.78121    0.72767    0.65865   1.00
C6       0.83602    0.68368    0.67206   1.00
C6       0.75422    0.63462    0.64293   1.00
H2       0.71785    0.56100    0.68610   1.00
C6       0.64709    0.54583    0.70943   1.00
C6       0.61729    0.50739    0.67349   1.00
H2       0.56489    0.56519    0.75383   1.00
H2       0.57228    0.59515    0.77899   1.00
H2       0.56445    0.51476    0.77406   1.00
H2       0.68125    0.53484    0.78849   1.00
H2       0.74351    0.62112    0.79151   1.00
H2       0.66072    0.59055    0.80092   1.00
H2       0.88591    0.78478    0.73355   1.00
H2       0.82108    0.80519    0.73415   1.00
H2       0.86600    0.80998    0.75666   1.00
H2       0.80388    0.62243    0.76149   1.00
H2       0.87990    0.68941    0.75192   1.00
H2       0.84678    0.70118    0.77481   1.00
H2       0.78753    0.75698    0.79479   1.00
H2       0.73766    0.79189    0.80350   1.00
H2       0.70301    0.70422    0.80365   1.00
H2       0.79612    0.85046    0.76939   1.00
H2       0.73693    0.82707    0.74968   1.00
H2       0.71750    0.84640    0.77355   1.00
H2       0.57932    0.68744    0.68980   1.00
H2       0.52624    0.62831    0.67154   1.00
H2       0.55628    0.60086    0.69190   1.00
H2       0.60644    0.71282    0.64632   1.00
H2       0.66778    0.76660    0.66394   1.00
H2       0.69075    0.73120    0.64367   1.00
H2       0.87823    0.71057    0.66139   1.00
H2       0.85063    0.71348    0.68606   1.00
H2       0.83140    0.63428    0.67529   1.00
H2       0.70889    0.62858    0.63521   1.00
H2       0.79691    0.66104    0.63238   1.00
H2       0.74759    0.58411    0.64573   1.00
H2       0.60259    0.55087    0.71266   1.00
H2       0.63424    0.49356    0.71289   1.00
H2       0.68732    0.57886    0.71983   1.00
H2       0.61178    0.45806    0.67757   1.00
H2       0.56735    0.50326    0.67518   1.00
H2       0.63129    0.51565    0.65749   1.00
C4       0.16785    0.35313    0.71800   1.00
C4       0.13989    0.29659    0.70431   1.00
C3       0.21319    0.36119    0.73403   1.00
C3       0.14948    0.23951    0.70639   1.00
C3       0.14898    0.40426    0.71589   1.00
C3       0.10016    0.29656    0.68749   1.00
C2       0.21952    0.46718    0.74568   1.00
C2       0.08035    0.18351    0.67623   1.00
C3       0.23802    0.41641    0.74756   1.00
C3       0.12108    0.18481    0.69264   1.00
C3       0.17560    0.46025    0.72947   1.00
C3       0.06959    0.23961    0.67431   1.00
H1       0.22967    0.32729    0.73630   1.00
H1       0.17701    0.23579    0.71803   1.00
C5       0.10386    0.39928    0.70018   1.00
C5       0.09060    0.35298    0.68401   1.00
H1       0.27027    0.41929    0.75896   1.00
H1       0.13021    0.14518    0.69480   1.00
H1       0.16311    0.49751    0.72742   1.00
H1       0.03774    0.23841    0.66312   1.00
O3       0.07694    0.44203    0.70023   1.00
O3       0.06426    0.36023    0.66587   1.00
Si1      0.00297    0.41722    0.71081   1.00
Si1      0.11586    0.39604    0.64676   1.00
C6       0.00475    0.49588    0.70911   1.00
C6       -0.05989   0.35557    0.69476   1.00
C6       -0.00105   0.39162    0.73631   1.00
C6       0.20284    0.42125    0.64996   1.00
C6       0.08039    0.33373    0.62770   1.00
C6       0.10770    0.46620    0.63916   1.00
C6       0.07250    0.56021    0.71618   1.00
H2       0.00236    0.50188    0.69274   1.00
C6       -0.05417   0.50497    0.71832   1.00
H2       -0.03437   0.36908    0.68006   1.00
C6       -0.08207   0.27888    0.69821   1.00
C6       -0.12801   0.35641    0.69168   1.00
H2       0.04605    0.43332    0.74261   1.00
C6       -0.06038   0.38720    0.74967   1.00
C6       -0.00060   0.32395    0.74127   1.00
C6       0.24302    0.47198    0.66753   1.00
C6       0.22495    0.36581    0.65017   1.00
H2       0.22559    0.44960    0.63602   1.00
H2       0.09015    0.29371    0.63295   1.00
C6       0.00119    0.29824    0.62499   1.00
C6       0.11202    0.35412    0.60598   1.00
H2       0.06168    0.44357    0.62984   1.00
C6       0.09374    0.50497    0.65633   1.00
C6       0.16547    0.52228    0.62567   1.00
H2       0.11667    0.56474    0.70809   1.00
H2       0.08101    0.55810    0.73242   1.00
H2       0.07137    0.60713    0.71320   1.00
H2       -0.06191   0.54066    0.70909   1.00
H2       -0.10258   0.45750    0.71904   1.00
H2       -0.04242   0.52617    0.73364   1.00
H2       -0.10948   0.24823    0.68499   1.00
H2       -0.03855   0.27157    0.70044   1.00
H2       -0.11597   0.25797    0.71127   1.00
H2       -0.11848   0.40594    0.68625   1.00
H2       -0.16029   0.31921    0.68024   1.00
H2       -0.15727   0.34395    0.70576   1.00
H2       -0.10988   0.35492    0.74254   1.00
H2       -0.06165   0.36644    0.76476   1.00
H2       -0.05401   0.43738    0.75237   1.00
H2       -0.05179   0.27943    0.74106   1.00
H2       0.03011    0.31350    0.73088   1.00
H2       0.02019    0.32692    0.75645   1.00
H2       0.23528    0.44570    0.68197   1.00
H2       0.29780    0.49857    0.66444   1.00
H2       0.22862    0.51088    0.66939   1.00
H2       0.28049    0.38973    0.64936   1.00
H2       0.20893    0.33519    0.66392   1.00
H2       0.20495    0.33156    0.63717   1.00
H2       -0.01724   0.25298    0.61540   1.00
H2       -0.02520   0.28107    0.63953   1.00
H2       -0.01425   0.33204    0.61797   1.00
H2       0.16743    0.37761    0.60632   1.00
H2       0.09278    0.30895    0.59630   1.00
H2       0.09891    0.38941    0.59872   1.00
H2       0.13546    0.52801    0.66724   1.00
H2       0.08538    0.54506    0.65024   1.00
H2       0.04783    0.46983    0.66452   1.00
H2       0.14968    0.55703    0.61945   1.00
H2       0.21213    0.55279    0.63439   1.00
H2       0.17769    0.50015    0.61279   1.00
C4       0.18534    0.83204    0.71794   1.00
C4       0.15671    0.85998    0.70426   1.00
C3       0.14733    0.78430    0.73339   1.00
C3       0.08896    0.84780    0.70582   1.00
C3       0.25614    0.85346    0.71644   1.00
C3       0.19750    0.90242    0.68800   1.00
C2       0.24774    0.78051    0.74566   1.00
C2       0.10306    0.91962    0.67625   1.00
C3       0.17770    0.75951    0.74694   1.00
C3       0.06263    0.87626    0.69210   1.00
C3       0.28553    0.82688    0.73002   1.00
C3       0.17095    0.93294    0.67486   1.00
H1       0.09641    0.76596    0.73519   1.00
H1       0.05688    0.81825    0.71705   1.00
C5       0.29704    0.90106    0.70133   1.00
C5       0.26472    0.91473    0.68503   1.00
H1       0.14776    0.72545    0.75790   1.00
H1       0.01309    0.86520    0.69386   1.00
H1       0.33595    0.84126    0.72840   1.00
H1       0.20219    0.96665    0.66411   1.00
O3       0.36693    0.93009    0.70204   1.00
O3       0.29996    0.94397    0.66732   1.00
Si1      0.41291    1.00317    0.71346   1.00
Si1      0.28806    0.89509    0.64776   1.00
C6       0.49147    1.00457    0.71226   1.00
C6       0.41353    1.06673    0.69786   1.00
C6       0.38789    1.00326    0.73882   1.00
C6       0.22817    0.80713    0.64993   1.00
C6       0.26152    0.93109    0.62877   1.00
C6       0.36837    0.90697    0.64075   1.00
C6       0.48981    0.93721    0.71884   1.00
H2       0.50177    1.00917    0.69599   1.00
C6       0.55737    1.06379    0.72234   1.00
H2       0.40395    1.04301    0.68291   1.00
C6       0.35676    1.08597    0.70109   1.00
C6       0.48144    1.13646    0.69572   1.00
H2       0.38350    0.95616    0.74475   1.00
C6       0.43997    1.06189    0.75295   1.00
C6       0.31797    0.99963    0.74330   1.00
C6       0.23849    0.76608    0.66728   1.00
C6       0.15005    0.78249    0.64946   1.00
H2       0.23636    0.78672    0.63588   1.00
H2       0.21061    0.91900    0.63362   1.00
C6       0.30325    1.01067    0.62692   1.00
C6       0.25377    0.90225    0.60678   1.00
H2       0.39145    0.95406    0.63192   1.00
C6       0.41956    0.92062    0.65837   1.00
C6       0.37042    0.85191    0.62686   1.00
H2       0.45208    0.89339    0.71017   1.00
H2       0.47749    0.92654    0.73493   1.00
H2       0.53903    0.94050    0.71619   1.00
H2       0.60235    1.07413    0.71347   1.00
H2       0.55637    1.11117    0.72340   1.00
H2       0.56572    1.05081    0.73763   1.00
H2       0.35390    1.11427    0.68805   1.00
H2       0.30643    1.04112    0.70268   1.00
H2       0.36717    1.11812    0.71447   1.00
H2       0.52316    1.12929    0.69051   1.00
H2       0.47648    1.16926    0.68448   1.00
H2       0.49582    1.16409    0.71011   1.00
H2       0.45639    1.11189    0.74628   1.00
H2       0.41836    1.06060    0.76791   1.00
H2       0.48452    1.05700    0.75590   1.00
H2       0.32279    1.05006    0.74350   1.00
H2       0.27843    0.96921    0.73243   1.00
H2       0.29890    0.97677    0.75821   1.00
H2       0.21767    0.77123    0.68164   1.00
H2       0.21227    0.71170    0.66363   1.00
H2       0.29200    0.78200    0.66960   1.00
H2       0.12010    0.72696    0.64806   1.00
H2       0.13300    0.79599    0.66321   1.00
H2       0.13623    0.80308    0.63652   1.00
H2       0.27630    1.02885    0.61728   1.00
H2       0.30997    1.03515    0.64169   1.00
H2       0.35360    1.02852    0.62034   1.00
H2       0.22338    0.84670    0.60651   1.00
H2       0.22772    0.92127    0.59706   1.00
H2       0.30337    0.91780    0.59994   1.00
H2       0.40093    0.87773    0.66885   1.00
H2       0.46928    0.93138    0.65267   1.00
H2       0.42782    0.96503    0.66694   1.00
H2       0.42198    0.87004    0.62110   1.00
H2       0.35480    0.80454    0.63514   1.00
H2       0.33738    0.84016    0.61367   1.00
