data_IRMOF10_interpen_symm_ligand3lp_label_b_1.

_audit_creation_method             'generated by an auxiliary program of Tobunporous'

_symmetry_space_group_name_H-M     'P 1'
_symmetry_Int_Tables_number        1
_symmetry_cell_setting             triclinic

_cell_length_a                    22.6523
_cell_length_b                    22.6523
_cell_length_c                    65.9502
_cell_angle_alpha                 90.0000
_cell_angle_beta                  90.0000
_cell_angle_gamma                 120.0000

loop_
_atom_site_label
_atom_site_fract_x
_atom_site_fract_y
_atom_site_fract_z
_atom_site_occupancy
O1       0.00000    -0.00000   0.62500   1.00
Zn1      0.00000    -0.00000   0.59589   1.00
Zn1      0.94848    1.04288    0.63392   1.00
Zn1      0.09439    0.05152    0.63392   1.00
Zn1      -0.04288   0.90561    0.63392   1.00
O2       0.93860    0.02610    0.58587   1.00
O2       0.08750    0.06140    0.58587   1.00
O2       -0.02610   0.91250    0.58587   1.00
O2       0.91305    0.07161    0.61181   1.00
O2       0.00462    0.12022    0.65110   1.00
O2       0.87413    0.98074    0.65071   1.00
O2       0.15856    0.08695    0.61181   1.00
O2       0.10660    0.12587    0.65071   1.00
O2       0.11559    0.99538    0.65110   1.00
O2       -0.07161   0.84144    0.61181   1.00
O2       0.87978    0.88441    0.65110   1.00
O2       0.01926    0.89340    0.65071   1.00
C1       0.91390    0.06020    0.59358   1.00
C1       0.14630    0.08610    0.59358   1.00
C1       -0.06020   0.85370    0.59358   1.00
C1       0.06663    0.14397    0.65673   1.00
C1       0.85603    0.92267    0.65673   1.00
C1       0.07733    0.93337    0.65673   1.00
O1       -0.00000   0.00000    0.87500   1.00
Zn1      -0.00000   0.00000    0.90411   1.00
Zn1      1.04288    0.94848    0.86608   1.00
Zn1      0.05152    0.09439    0.86608   1.00
Zn1      0.90561    -0.04288   0.86608   1.00
O2       0.02610    0.93860    0.91413   1.00
O2       0.06140    0.08750    0.91413   1.00
O2       0.91250    -0.02610   0.91413   1.00
O2       0.07161    0.91305    0.88819   1.00
O2       0.12022    0.00462    0.84890   1.00
O2       0.98074    0.87413    0.84929   1.00
O2       0.08695    0.15856    0.88819   1.00
O2       0.12587    0.10660    0.84929   1.00
O2       0.99538    0.11559    0.84890   1.00
O2       0.84144    -0.07161   0.88819   1.00
O2       0.88441    0.87978    0.84890   1.00
O2       0.89340    0.01926    0.84929   1.00
C1       0.06020    0.91390    0.90642   1.00
C1       0.08610    0.14630    0.90642   1.00
C1       0.85370    -0.06020   0.90642   1.00
C1       0.14397    0.06663    0.84327   1.00
C1       0.92267    0.85603    0.84327   1.00
C1       0.93337    0.07733    0.84327   1.00
O1       0.00000    0.00000    0.37500   1.00
Zn1      0.00000    0.00000    0.40411   1.00
Zn1      0.05152    -0.04288   0.36608   1.00
Zn1      0.90561    0.94848    0.36608   1.00
Zn1      1.04288    0.09439    0.36608   1.00
O2       0.06140    -0.02610   0.41413   1.00
O2       0.91250    0.93860    0.41413   1.00
O2       0.02610    0.08750    0.41413   1.00
O2       0.08695    -0.07161   0.38819   1.00
O2       0.99538    0.87978    0.34890   1.00
O2       0.12587    0.01926    0.34929   1.00
O2       0.84144    0.91305    0.38819   1.00
O2       0.89340    0.87413    0.34929   1.00
O2       0.88441    0.00462    0.34890   1.00
O2       0.07161    0.15856    0.38819   1.00
O2       0.12022    0.11559    0.34890   1.00
O2       0.98074    0.10660    0.34929   1.00
C1       0.08610    -0.06020   0.40642   1.00
C1       0.85370    0.91390    0.40642   1.00
C1       0.06020    0.14630    0.40642   1.00
C1       0.93337    0.85603    0.34327   1.00
C1       0.14397    0.07733    0.34327   1.00
C1       0.92267    0.06663    0.34327   1.00
O1       0.00000    0.00000    0.12500   1.00
Zn1      0.00000    0.00000    0.09589   1.00
Zn1      -0.04288   0.05152    0.13392   1.00
Zn1      0.94848    0.90561    0.13392   1.00
Zn1      0.09439    1.04288    0.13392   1.00
O2       -0.02610   0.06140    0.08587   1.00
O2       0.93860    0.91250    0.08587   1.00
O2       0.08750    0.02610    0.08587   1.00
O2       -0.07161   0.08695    0.11181   1.00
O2       0.87978    0.99538    0.15110   1.00
O2       0.01926    0.12587    0.15071   1.00
O2       0.91305    0.84144    0.11181   1.00
O2       0.87413    0.89340    0.15071   1.00
O2       0.00462    0.88441    0.15110   1.00
O2       0.15856    0.07161    0.11181   1.00
O2       0.11559    0.12022    0.15110   1.00
O2       0.10660    0.98074    0.15071   1.00
C1       -0.06020   0.08610    0.09358   1.00
C1       0.91390    0.85370    0.09358   1.00
C1       0.14630    0.06020    0.09358   1.00
C1       0.85603    0.93337    0.15673   1.00
C1       0.07733    0.14397    0.15673   1.00
C1       0.06663    0.92267    0.15673   1.00
O1       0.66667    0.33333    0.95833   1.00
Zn1      0.66667    0.33333    0.92922   1.00
Zn1      0.61515    0.37621    0.96725   1.00
Zn1      0.76106    0.38485    0.96725   1.00
Zn1      -0.37621   0.23894    0.96725   1.00
O2       0.60527    0.35943    0.91920   1.00
O2       0.75417    0.39473    0.91920   1.00
O2       0.64057    0.24583    0.91920   1.00
O2       0.57972    0.40494    0.94514   1.00
O2       0.67129    0.45355    0.98443   1.00
O2       0.54080    0.31407    0.98404   1.00
O2       0.82523    0.42028    0.94514   1.00
O2       0.77327    0.45920    0.98404   1.00
O2       -0.21774   0.32871    0.98443   1.00
O2       0.59506    0.17477    0.94514   1.00
O2       0.54645    0.21774    0.98443   1.00
O2       -0.31407   0.22673    0.98404   1.00
C1       0.58057    0.39353    0.92691   1.00
C1       0.81297    0.41943    0.92691   1.00
C1       0.60647    0.18703    0.92691   1.00
C1       0.73330    0.47730    0.99006   1.00
C1       0.52270    0.25600    0.99006   1.00
C1       -0.25600   0.26670    0.99006   1.00
O1       0.66667    0.33333    0.20833   1.00
Zn1      0.66667    0.33333    0.23744   1.00
Zn1      0.70954    0.28182    0.19942   1.00
Zn1      0.71818    0.42773    0.19942   1.00
Zn1      0.57227    0.29046    0.19942   1.00
O2       0.69277    0.27193    0.24746   1.00
O2       0.72807    0.42083    0.24746   1.00
O2       0.57917    0.30723    0.24746   1.00
O2       0.73828    0.24638    0.22152   1.00
O2       0.78688    0.33796    0.18224   1.00
O2       0.64740    0.20747    0.18263   1.00
O2       0.75362    0.49189    0.22152   1.00
O2       0.79253    0.43994    0.18263   1.00
O2       0.66204    0.44893    0.18224   1.00
O2       0.50811    0.26172    0.22152   1.00
O2       0.55107    0.21312    0.18224   1.00
O2       0.56006    0.35260    0.18263   1.00
C1       0.72687    0.24723    0.23975   1.00
C1       0.75277    0.47963    0.23975   1.00
C1       0.52037    0.27313    0.23975   1.00
C1       0.81063    0.39997    0.17661   1.00
C1       0.58933    0.18937    0.17661   1.00
C1       0.60003    0.41067    0.17661   1.00
O1       0.66667    0.33333    0.70833   1.00
Zn1      0.66667    0.33333    0.73744   1.00
Zn1      0.71818    0.29046    0.69942   1.00
Zn1      0.57227    0.28182    0.69942   1.00
Zn1      0.70954    0.42773    0.69942   1.00
O2       0.72807    0.30723    0.74746   1.00
O2       0.57917    0.27193    0.74746   1.00
O2       0.69277    0.42083    0.74746   1.00
O2       0.75362    0.26172    0.72152   1.00
O2       0.66204    0.21312    0.68224   1.00
O2       0.79253    0.35260    0.68263   1.00
O2       0.50811    0.24638    0.72152   1.00
O2       0.56006    0.20747    0.68263   1.00
O2       0.55107    0.33796    0.68224   1.00
O2       0.73828    0.49189    0.72152   1.00
O2       0.78688    0.44893    0.68224   1.00
O2       0.64740    0.43994    0.68263   1.00
C1       0.75277    0.27313    0.73975   1.00
C1       0.52037    0.24723    0.73975   1.00
C1       0.72687    0.47963    0.73975   1.00
C1       0.60003    0.18937    0.67661   1.00
C1       0.81063    0.41067    0.67661   1.00
C1       0.58933    0.39997    0.67661   1.00
O1       0.66667    0.33333    0.45833   1.00
Zn1      0.66667    0.33333    0.42922   1.00
Zn1      -0.37621   0.38485    0.46725   1.00
Zn1      0.61515    0.23894    0.46725   1.00
Zn1      0.76106    0.37621    0.46725   1.00
O2       0.64057    0.39473    0.41920   1.00
O2       0.60527    0.24583    0.41920   1.00
O2       0.75417    0.35943    0.41920   1.00
O2       0.59506    0.42028    0.44514   1.00
O2       0.54645    0.32871    0.48443   1.00
O2       -0.31407   0.45920    0.48404   1.00
O2       0.57972    0.17477    0.44514   1.00
O2       0.54080    0.22673    0.48404   1.00
O2       0.67129    0.21774    0.48443   1.00
O2       0.82523    0.40494    0.44514   1.00
O2       -0.21774   0.45355    0.48443   1.00
O2       0.77327    0.31407    0.48404   1.00
C1       0.60647    0.41943    0.42691   1.00
C1       0.58057    0.18703    0.42691   1.00
C1       0.81297    0.39353    0.42691   1.00
C1       0.52270    0.26670    0.49006   1.00
C1       -0.25600   0.47730    0.49006   1.00
C1       0.73330    0.25600    0.49006   1.00
O1       0.33333    0.66667    0.29167   1.00
Zn1      0.33333    0.66667    0.26256   1.00
Zn1      0.28182    0.70954    0.30058   1.00
Zn1      0.42773    0.71818    0.30058   1.00
Zn1      0.29046    0.57227    0.30058   1.00
O2       0.27193    0.69277    0.25254   1.00
O2       0.42083    0.72807    0.25254   1.00
O2       0.30723    0.57917    0.25254   1.00
O2       0.24638    0.73828    0.27848   1.00
O2       0.33796    0.78688    0.31776   1.00
O2       0.20747    0.64740    0.31737   1.00
O2       0.49189    0.75362    0.27848   1.00
O2       0.43994    0.79253    0.31737   1.00
O2       0.44893    0.66204    0.31776   1.00
O2       0.26172    0.50811    0.27848   1.00
O2       0.21312    0.55107    0.31776   1.00
O2       0.35260    0.56006    0.31737   1.00
C1       0.24723    0.72687    0.26025   1.00
C1       0.47963    0.75277    0.26025   1.00
C1       0.27313    0.52037    0.26025   1.00
C1       0.39997    0.81063    0.32339   1.00
C1       0.18937    0.58933    0.32339   1.00
C1       0.41067    0.60003    0.32339   1.00
O1       0.33333    0.66667    0.54167   1.00
Zn1      0.33333    0.66667    0.57078   1.00
Zn1      0.37621    0.61515    0.53275   1.00
Zn1      0.38485    0.76106    0.53275   1.00
Zn1      0.23894    -0.37621   0.53275   1.00
O2       0.35943    0.60527    0.58080   1.00
O2       0.39473    0.75417    0.58080   1.00
O2       0.24583    0.64057    0.58080   1.00
O2       0.40494    0.57972    0.55486   1.00
O2       0.45355    0.67129    0.51557   1.00
O2       0.31407    0.54080    0.51596   1.00
O2       0.42028    0.82523    0.55486   1.00
O2       0.45920    0.77327    0.51596   1.00
O2       0.32871    -0.21774   0.51557   1.00
O2       0.17477    0.59506    0.55486   1.00
O2       0.21774    0.54645    0.51557   1.00
O2       0.22673    -0.31407   0.51596   1.00
C1       0.39353    0.58057    0.57309   1.00
C1       0.41943    0.81297    0.57309   1.00
C1       0.18703    0.60647    0.57309   1.00
C1       0.47730    0.73330    0.50994   1.00
C1       0.25600    0.52270    0.50994   1.00
C1       0.26670    -0.25600   0.50994   1.00
O1       0.33333    0.66667    0.04167   1.00
Zn1      0.33333    0.66667    0.07078   1.00
Zn1      0.38485    -0.37621   0.03275   1.00
Zn1      0.23894    0.61515    0.03275   1.00
Zn1      0.37621    0.76106    0.03275   1.00
O2       0.39473    0.64057    0.08080   1.00
O2       0.24583    0.60527    0.08080   1.00
O2       0.35943    0.75417    0.08080   1.00
O2       0.42028    0.59506    0.05486   1.00
O2       0.32871    0.54645    0.01557   1.00
O2       0.45920    -0.31407   0.01596   1.00
O2       0.17477    0.57972    0.05486   1.00
O2       0.22673    0.54080    0.01596   1.00
O2       0.21774    0.67129    0.01557   1.00
O2       0.40494    0.82523    0.05486   1.00
O2       0.45355    -0.21774   0.01557   1.00
O2       0.31407    0.77327    0.01596   1.00
C1       0.41943    0.60647    0.07309   1.00
C1       0.18703    0.58057    0.07309   1.00
C1       0.39353    0.81297    0.07309   1.00
C1       0.26670    0.52270    0.00994   1.00
C1       0.47730    -0.25600   0.00994   1.00
C1       0.25600    0.73330    0.00994   1.00
O1       0.33333    0.66667    0.79167   1.00
Zn1      0.33333    0.66667    0.76256   1.00
Zn1      0.29046    0.71818    0.80058   1.00
Zn1      0.28182    0.57227    0.80058   1.00
Zn1      0.42773    0.70954    0.80058   1.00
O2       0.30723    0.72807    0.75254   1.00
O2       0.27193    0.57917    0.75254   1.00
O2       0.42083    0.69277    0.75254   1.00
O2       0.26172    0.75362    0.77848   1.00
O2       0.21312    0.66204    0.81776   1.00
O2       0.35260    0.79253    0.81737   1.00
O2       0.24638    0.50811    0.77848   1.00
O2       0.20747    0.56006    0.81737   1.00
O2       0.33796    0.55107    0.81776   1.00
O2       0.49189    0.73828    0.77848   1.00
O2       0.44893    0.78688    0.81776   1.00
O2       0.43994    0.64740    0.81737   1.00
C1       0.27313    0.75277    0.76025   1.00
C1       0.24723    0.52037    0.76025   1.00
C1       0.47963    0.72687    0.76025   1.00
C1       0.18937    0.60003    0.82339   1.00
C1       0.41067    0.81063    0.82339   1.00
C1       0.39997    0.58933    0.82339   1.00
C4       -0.13681   0.68503    0.55181   1.00
C4       -0.16598   0.62728    0.53857   1.00
C3       -0.08039   0.70179    0.56473   1.00
C3       -0.14573   0.57719    0.53827   1.00
C3       -0.16591   0.72822    0.55254   1.00
C3       -0.21825   0.61861    0.52475   1.00
C2       -0.08292   0.80078    0.57889   1.00
C2       -0.22855   0.51110    0.51166   1.00
C3       -0.05441   0.75782    0.57798   1.00
C3       -0.17568   0.52103    0.52506   1.00
C3       -0.13814   0.78524    0.56573   1.00
C3       -0.24978   0.56014    0.51218   1.00
H1       -0.05638   0.67392    0.56483   1.00
H1       -0.10894   0.57980    0.54773   1.00
C5       -0.22238   0.71434    0.54001   1.00
C5       -0.23925   0.66791    0.52365   1.00
H1       -0.01384   0.76716    0.58707   1.00
H1       -0.15858   0.48675    0.52538   1.00
H1       -0.15834   0.81685    0.56568   1.00
H1       -0.29006   0.55243    0.50330   1.00
O3       -0.25728   0.74891    0.54314   1.00
O3       -0.27940   0.66783    0.50785   1.00
Si1      -0.32455   0.71593    0.55774   1.00
Si1      -0.24269   0.70608    0.48671   1.00
C6       -0.33597   0.78752    0.55829   1.00
C6       -0.39108   0.64762    0.54438   1.00
C6       -0.30885   0.69546    0.58225   1.00
C6       -0.15318   0.74337    0.48477   1.00
C6       -0.28221   0.64114    0.46854   1.00
C6       -0.26692   0.76755    0.48190   1.00
C6       -0.27033   0.85784    0.56260   1.00
H2       -0.34965   0.79037    0.54258   1.00
C6       -0.39354   0.78759    0.57155   1.00
H2       -0.37555   0.66200    0.52865   1.00
C6       -0.40032   0.57479    0.54696   1.00
C6       -0.46472   0.63706    0.54595   1.00
H2       -0.26189   0.74178    0.58651   1.00
C6       -0.36216   0.68375    0.59920   1.00
C6       -0.29476   0.63466    0.58506   1.00
C6       -0.10785   0.79832    0.50082   1.00
C6       -0.12121   0.69652    0.48184   1.00
H2       -0.14241   0.77091    0.47042   1.00
H2       -0.26245   0.60703    0.47185   1.00
C6       -0.36162   0.59582    0.47015   1.00
C6       -0.26572   0.66182    0.44573   1.00
H2       -0.31760   0.73833    0.47518   1.00
C6       -0.27687   0.80289    0.50084   1.00
C6       -0.22335   0.82597    0.46647   1.00
H2       -0.22968   0.86793    0.55184   1.00
H2       -0.25091   0.85948    0.57789   1.00
H2       -0.28068   0.89992    0.56115   1.00
H2       -0.41299   0.81756    0.56409   1.00
H2       -0.43659   0.73677    0.57409   1.00
H2       -0.37490   0.81083    0.58642   1.00
H2       -0.43264   0.54074    0.53492   1.00
H2       -0.35204   0.57542    0.54601   1.00
H2       -0.42452   0.55211    0.56142   1.00
H2       -0.46580   0.68289    0.54147   1.00
H2       -0.50003   0.59651    0.53579   1.00
H2       -0.48474   0.62295    0.56135   1.00
H2       -0.41363   0.64550    0.59456   1.00
H2       -0.35083   0.66671    0.61347   1.00
H2       -0.36157   0.73077    0.60292   1.00
H2       -0.34177   0.58595    0.58697   1.00
H2       -0.26736   0.62867    0.57250   1.00
H2       -0.26387   0.64275    0.59864   1.00
H2       -0.10287   0.77514    0.51471   1.00
H2       -0.05634   0.83086    0.49491   1.00
H2       -0.12787   0.83165    0.50476   1.00
H2       -0.06705   0.72706    0.47803   1.00
H2       -0.12469   0.66797    0.49549   1.00
H2       -0.14503   0.66042    0.46942   1.00
H2       -0.37996   0.55041    0.46063   1.00
H2       -0.37760   0.57795    0.48567   1.00
H2       -0.38750   0.62313    0.46530   1.00
H2       -0.21092   0.69210    0.44305   1.00
H2       -0.28497   0.61635    0.43618   1.00
H2       -0.28952   0.69082    0.44054   1.00
H2       -0.22978   0.83201    0.50942   1.00
H2       -0.29570   0.83719    0.49662   1.00
H2       -0.31454   0.76469    0.51090   1.00
H2       -0.24923   0.85420    0.46247   1.00
H2       -0.17360   0.86237    0.47280   1.00
H2       -0.21513   0.80606    0.45236   1.00
C4       0.31726    0.17868    0.55267   1.00
C4       0.37456    0.20658    0.53926   1.00
C3       0.31980    0.20256    0.57274   1.00
C3       0.44145    0.25680    0.54517   1.00
C3       0.25387    0.12307    0.54590   1.00
C3       0.36510    0.18356    0.51873   1.00
C2       0.20003    0.11730    0.57920   1.00
C2       0.48809    0.25935    0.51135   1.00
C3       0.26295    0.17250    0.58569   1.00
C3       0.49655    0.28294    0.53156   1.00
C3       0.19676    0.09429    0.55906   1.00
C3       0.42184    0.20842    0.50550   1.00
H1       0.36297    0.24264    0.57852   1.00
H1       0.45220    0.27555    0.55957   1.00
C5       0.24786    0.09678    0.52600   1.00
C5       0.29930    0.13544    0.51154   1.00
H1       0.26796    0.19161    0.60010   1.00
H1       0.54366    0.31962    0.53664   1.00
H1       0.15112    0.05568    0.55381   1.00
H1       0.41503    0.18825    0.49125   1.00
O3       0.19061    0.03644    0.52069   1.00
O3       0.28658    0.12269    0.49103   1.00
Si1      0.19056    -0.03542   0.52286   1.00
Si1      0.26870    0.17234    0.47764   1.00
C6       0.10321    -0.09008   0.51761   1.00
C6       0.24222    -0.03802   0.50327   1.00
C6       0.21169    -0.04952   0.54747   1.00
C6       0.26938    0.24210    0.48992   1.00
C6       0.33123    0.20266    0.45859   1.00
C6       0.18894    0.12015    0.46610   1.00
C6       0.05241    -0.07414   0.52926   1.00
H2       0.09967    -0.07854   0.50172   1.00
C6       0.07058    -0.16964   0.51865   1.00
H2       0.23939    -0.00438   0.49194   1.00
C6       0.31994    -0.00841   0.50758   1.00
C6       0.21872    -0.10728   0.49211   1.00
H2       0.17943    -0.03776   0.55701   1.00
C6       0.19308    -0.12416   0.55301   1.00
C6       0.28666    -0.00434   0.55549   1.00
C6       0.22183    0.22704    0.50872   1.00
C6       0.33917    0.30647    0.49551   1.00
H2       0.24873    0.26088    0.47824   1.00
H2       0.37824    0.23679    0.46665   1.00
C6       0.34464    0.14822    0.44823   1.00
C6       0.32447    0.24557    0.44110   1.00
H2       0.20089    0.09878    0.45293   1.00
C6       0.13640    0.05712    0.47857   1.00
C6       0.14903    0.15491    0.45772   1.00
H2       0.06443    -0.02158   0.52681   1.00
H2       0.05372    -0.08194   0.54558   1.00
H2       0.00004    -0.10683   0.52402   1.00
H2       0.03009    -0.19392   0.50733   1.00
H2       0.10715    -0.18644   0.51580   1.00
H2       0.04703    -0.19029   0.53336   1.00
H2       0.34823    0.00031    0.49341   1.00
H2       0.34252    0.04060    0.51529   1.00
H2       0.32864    -0.04353   0.51673   1.00
H2       0.16766    -0.12786   0.48575   1.00
H2       0.25226    -0.10087   0.47933   1.00
H2       0.21924    -0.14494   0.50235   1.00
H2       0.21413    -0.14452   0.54194   1.00
H2       0.21226    -0.12716   0.56799   1.00
H2       0.13822    -0.15777   0.55384   1.00
H2       0.31920    -0.02523   0.55129   1.00
H2       0.31146    0.04770    0.55000   1.00
H2       0.28672    -0.00172   0.57205   1.00
H2       0.24517    0.22205    0.52257   1.00
H2       0.21148    0.26879    0.51115   1.00
H2       0.17274    0.18078    0.50680   1.00
H2       0.33152    0.34842    0.50030   1.00
H2       0.36472    0.29670    0.50794   1.00
H2       0.37399    0.32545    0.48262   1.00
H2       0.39153    0.17320    0.43925   1.00
H2       0.35133    0.11659    0.45948   1.00
H2       0.30310    0.11470    0.43813   1.00
H2       0.31697    0.28641    0.44697   1.00
H2       0.37099    0.26972    0.43194   1.00
H2       0.28212    0.21368    0.43099   1.00
H2       0.12213    0.07183    0.49268   1.00
H2       0.08999    0.02536    0.46989   1.00
H2       0.15815    0.02535    0.48240   1.00
H2       0.10611    0.11940    0.44829   1.00
H2       0.12859    0.17177    0.47002   1.00
H2       0.18123    0.19888    0.44823   1.00
C4       0.82585    0.14456    0.55320   1.00
C4       0.79787    0.17298    0.53945   1.00
C3       0.86898    0.18118    0.56970   1.00
C3       0.81513    0.24252    0.53972   1.00
C3       0.81107    0.07605    0.55023   1.00
C3       0.74974    0.12998    0.52457   1.00
C2       0.88314    0.08455    0.57971   1.00
C2       0.74021    0.22692    0.51084   1.00
C3       0.89716    0.15218    0.58253   1.00
C3       0.78664    0.26864    0.52594   1.00
C3       0.83898    0.04730    0.56357   1.00
C3       0.72386    0.15796    0.51027   1.00
H1       0.88098    0.22992    0.57294   1.00
H1       0.84923    0.27633    0.54985   1.00
C5       0.76828    0.03661    0.53402   1.00
C5       0.72812    0.05948    0.52389   1.00
H1       0.92841    0.18129    0.59413   1.00
H1       0.80056    0.31920    0.52696   1.00
H1       0.82641    -0.00250   0.56159   1.00
H1       0.69285    0.12751    0.49891   1.00
O3       0.76333    -0.02489   0.52915   1.00
O3       0.67231    0.01475    0.51246   1.00
Si1      0.81293    -0.02802   0.51172   1.00
Si1      0.59631    -0.01708   0.52230   1.00
C6       0.79073    -0.11384   0.51555   1.00
C6       0.78345    -0.01701   0.48806   1.00
C6       0.90046    0.02783    0.51643   1.00
C6       0.58886    0.00964    0.54690   1.00
C6       0.55343    0.00681    0.50487   1.00
C6       0.55845    -0.10652   0.52153   1.00
C6       0.79022    -0.13571   0.53815   1.00
H2       0.73746    -0.14130   0.51074   1.00
C6       0.82671    -0.14648   0.50329   1.00
H2       0.72993    -0.03451   0.49129   1.00
C6       0.81373    0.05704    0.47953   1.00
C6       0.78313    -0.06080   0.46965   1.00
H2       0.90516    0.01755    0.53237   1.00
C6       0.95259    0.01449    0.50454   1.00
C6       0.93042    0.10698    0.51460   1.00
C6       0.62873    -0.00085   0.56458   1.00
C6       0.59799    0.08236    0.54997   1.00
H2       0.53507    -0.02456   0.55034   1.00
H2       0.57723    0.06186    0.50688   1.00
C6       0.56352    -0.00375   0.48192   1.00
C6       0.47516    -0.02302   0.50808   1.00
H2       0.53994    -0.11978   0.50597   1.00
C6       0.60727    -0.13573   0.52452   1.00
C6       0.49531    -0.14990   0.53550   1.00
H2       0.75707    -0.12488   0.54756   1.00
H2       0.84141    -0.10906   0.54470   1.00
H2       0.77099    -0.19051   0.53932   1.00
H2       0.79080    -0.20047   0.50050   1.00
H2       0.84586    -0.12231   0.48866   1.00
H2       0.86959    -0.14420   0.51156   1.00
H2       0.78174    0.05844    0.46733   1.00
H2       0.81619    0.09264    0.49104   1.00
H2       0.86474    0.07575    0.47333   1.00
H2       0.75402    -0.11521   0.47304   1.00
H2       0.75891    -0.05301   0.45635   1.00
H2       0.83495    -0.04732   0.46534   1.00
H2       0.94358    0.01224    0.48821   1.00
H2       1.00541    0.05424    0.50734   1.00
H2       0.94981    -0.03269   0.50938   1.00
H2       0.94641    0.12527    0.49914   1.00
H2       0.89500    0.12346    0.51919   1.00
H2       0.97542    0.13396    0.52429   1.00
H2       0.68153    0.04034    0.56526   1.00
H2       0.60547    -0.00169   0.57919   1.00
H2       0.62856    -0.04884   0.56326   1.00
H2       0.58249    0.08758    0.56527   1.00
H2       0.65070    0.12265    0.54810   1.00
H2       0.56645    0.09219    0.53956   1.00
H2       0.54494    0.02292    0.47232   1.00
H2       0.61740    0.01701    0.47825   1.00
H2       0.53615    -0.05750   0.47765   1.00
H2       0.46342    -0.01605   0.52364   1.00
H2       0.45640    0.00298    0.49825   1.00
H2       0.44640    -0.07731   0.50442   1.00
H2       0.63138    -0.12349   0.53943   1.00
H2       0.58057    -0.19107   0.52265   1.00
H2       0.64739    -0.11445   0.51319   1.00
H2       0.47037    -0.20390   0.53141   1.00
H2       0.51016    -0.14548   0.55144   1.00
H2       0.45697    -0.13447   0.53405   1.00
C4       0.68179    -0.14570   0.94699   1.00
C4       0.62547    -0.17373   0.96077   1.00
C3       0.69913    -0.18600   0.93457   1.00
C3       0.58475    -0.24457   0.96485   1.00
C3       0.72411    -0.07340   0.94566   1.00
C3       0.60826    -0.12899   0.97110   1.00
C2       0.79850    -0.08519   0.92026   1.00
C2       0.51338    -0.22628   0.98919   1.00
C3       0.75608    -0.15664   0.92165   1.00
C3       0.52985    -0.27022   0.97852   1.00
C3       0.78059    -0.04475   0.93225   1.00
C3       0.55458    -0.15560   0.98547   1.00
H1       0.67076    -0.23785   0.93449   1.00
H1       0.59404    -0.27959   0.95811   1.00
C5       0.70958    -0.03018   0.95766   1.00
C5       0.64498    -0.05793   0.96721   1.00
H1       0.76641    -0.18836   0.91314   1.00
H1       0.50182    -0.32197   0.98075   1.00
H1       0.80937    0.00721    0.93104   1.00
H1       0.54569    -0.12254   0.99369   1.00
O3       0.75651    0.03843    0.95888   1.00
O3       0.62112    -0.01576   0.97384   1.00
Si1      0.81211    0.06699    0.97732   1.00
Si1      0.56589    -0.00790   0.95991   1.00
C6       0.86175    0.15122    0.96824   1.00
C6       0.76823    0.06447    0.99969   1.00
C6       0.86065    0.02575    0.97891   1.00
C6       0.53693    -0.05626   0.93733   1.00
C6       0.49680    -0.03221   0.97647   1.00
C6       0.60104    0.07951    0.95451   1.00
C6       0.88193    0.15853    0.94525   1.00
H2       0.82642    0.17066    0.96950   1.00
C6       0.92818    0.20445    0.97962   1.00
H2       0.72480    0.06735    0.99371   1.00
C6       0.73716    -0.00161   1.01296   1.00
C6       0.80385    0.12484    1.01510   1.00
H2       0.87603    0.02665    0.96315   1.00
C6       0.92827    0.06201    0.99155   1.00
C6       0.82543    -0.05072   0.98599   1.00
C6       0.59124    -0.04737   0.92114   1.00
C6       0.48481    -0.13463   0.93859   1.00
H2       0.50755    -0.03558   0.93025   1.00
H2       0.47585    -0.08699   0.97833   1.00
C6       0.51492    -0.00180   0.99841   1.00
C6       0.43678    -0.02236   0.96896   1.00
H2       0.59075    0.10022    0.96815   1.00
C6       0.67997    0.12143    0.95181   1.00
C6       0.57020    0.10017    0.93643   1.00
H2       0.83709    0.13161    0.93554   1.00
H2       0.91581    0.13819    0.94219   1.00
H2       0.90797    0.21193    0.94049   1.00
H2       0.93487    0.25554    0.97814   1.00
H2       0.92716    0.19373    0.99572   1.00
H2       0.97401    0.20706    0.97330   1.00
H2       0.69978    -0.00259   1.02367   1.00
H2       0.71031    -0.04766   1.00385   1.00
H2       0.77654    -0.00431   1.02178   1.00
H2       0.81891    0.17371    1.00787   1.00
H2       0.76942    0.11974    1.02748   1.00
H2       0.84879    0.12666    1.02185   1.00
H2       0.91889    0.07382    1.00686   1.00
H2       0.95237    0.03064    0.99287   1.00
H2       0.96614    0.10879    0.98426   1.00
H2       0.82592    -0.05532   1.00246   1.00
H2       0.77282    -0.08087   0.98117   1.00
H2       0.85252    -0.07525   0.97970   1.00
H2       0.61390    -0.07880   0.92459   1.00
H2       0.56771    -0.06287   0.90616   1.00
H2       0.63214    0.00535    0.91984   1.00
H2       0.46465    -0.15519   0.92354   1.00
H2       0.50791    -0.16329   0.94444   1.00
H2       0.44084    -0.14588   0.94802   1.00
H2       0.47079    -0.02850   1.00844   1.00
H2       0.55592    -0.00778   1.00501   1.00
H2       0.53065    0.05227    0.99868   1.00
H2       0.41927    -0.04403   0.95389   1.00
H2       0.39300    -0.04821   0.97916   1.00
H2       0.45149    0.03150    0.96855   1.00
H2       0.69723    0.10372    0.93895   1.00
H2       0.69800    0.17567    0.94970   1.00
H2       0.70474    0.11684    0.96533   1.00
H2       0.58883    0.15501    0.93660   1.00
H2       0.58410    0.08780    0.92182   1.00
H2       0.51475    0.07473    0.93729   1.00
C4       0.17866    0.31731    0.94731   1.00
C4       0.20655    0.37460    0.96073   1.00
C3       0.20180    0.32016    0.92713   1.00
C3       0.25594    0.44171    0.95473   1.00
C3       0.12383    0.25360    0.95420   1.00
C3       0.18438    0.36489    0.98135   1.00
C2       0.11731    0.20006    0.92079   1.00
C2       0.25934    0.48806    0.98866   1.00
C3       0.17175    0.26329    0.91419   1.00
C3       0.28210    0.49679    0.96835   1.00
C3       0.09506    0.19649    0.94103   1.00
C3       0.20922    0.42158    0.99459   1.00
H1       0.24131    0.36357    0.92125   1.00
H1       0.27405    0.45264    0.94027   1.00
C5       0.09830    0.24728    0.97422   1.00
C5       0.13715    0.29889    0.98861   1.00
H1       0.19031    0.26852    0.89969   1.00
H1       0.31816    0.54408    0.96321   1.00
H1       0.05704    0.15064    0.94636   1.00
H1       0.18962    0.41454    1.00893   1.00
O3       0.03856    0.18960    0.97968   1.00
O3       0.12537    0.28609    1.00915   1.00
Si1      -0.03386   0.18858    0.97788   1.00
Si1      0.17616    0.26899    1.02224   1.00
C6       -0.08748   0.10109    0.98318   1.00
C6       -0.03633   0.23985    0.99761   1.00
C6       -0.04940   0.20937    0.95339   1.00
C6       0.24584    0.27062    1.00961   1.00
C6       0.20665    0.33151    1.04130   1.00
C6       0.12520    0.18908    1.03383   1.00
C6       -0.07125   0.05085    0.97132   1.00
H2       -0.07513   0.09773    0.99899   1.00
C6       -0.16717   0.06760    0.98245   1.00
H2       -0.00195   0.23750    1.00876   1.00
C6       -0.00776   0.31744    0.99335   1.00
C6       -0.10525   0.21557    1.00906   1.00
H2       -0.03753   0.17749    0.94371   1.00
C6       -0.12452   0.18988    0.94819   1.00
C6       -0.00528   0.28444    0.94534   1.00
C6       0.23052    0.22319    0.99077   1.00
C6       0.30945    0.34081    1.00387   1.00
H2       0.26553    0.25036    1.02114   1.00
H2       0.24003    0.37866    1.03319   1.00
C6       0.15212    0.34409    1.05197   1.00
C6       0.25069    0.32537    1.05854   1.00
H2       0.10409    0.20065    1.04714   1.00
C6       0.06192    0.13604    1.02155   1.00
C6       0.16108    0.14991    1.04194   1.00
H2       -0.01840   0.06350    0.97353   1.00
H2       -0.07982   0.05204    0.95504   1.00
H2       -0.10322   -0.00160   0.97658   1.00
H2       -0.19058   0.02706    0.99379   1.00
H2       -0.18445   0.10369    0.98548   1.00
H2       -0.18827   0.04393    0.96779   1.00
H2       0.00125    0.34565    1.00755   1.00
H2       0.04093    0.34052    0.98545   1.00
H2       -0.04363   0.32560    0.98441   1.00
H2       -0.12500   0.16459    1.01539   1.00
H2       -0.09870   0.24896    1.02189   1.00
H2       -0.14361   0.21558    0.99902   1.00
H2       -0.14482   0.21052    0.95942   1.00
H2       -0.12844   0.20889    0.93327   1.00
H2       -0.15765   0.13494    0.94738   1.00
H2       -0.02657   0.31647    0.94973   1.00
H2       0.04700    0.30978    0.95063   1.00
H2       -0.00335   0.28454    0.92876   1.00
H2       0.22458    0.24630    0.97700   1.00
H2       0.27257    0.21347    0.98810   1.00
H2       0.18470    0.17381    0.99279   1.00
H2       0.35158    0.33377    0.99885   1.00
H2       0.29874    0.36604    0.99156   1.00
H2       0.32864    0.37564    1.01675   1.00
H2       0.17702    0.39099    1.06094   1.00
H2       0.11970    0.35031    1.04090   1.00
H2       0.11937    0.30238    1.06213   1.00
H2       0.29165    0.31848    1.05246   1.00
H2       0.27477    0.37191    1.06770   1.00
H2       0.21960    0.28288    1.06871   1.00
H2       0.07632    0.12206    1.00733   1.00
H2       0.03095    0.08951    1.03027   1.00
H2       0.02949    0.15721    1.01793   1.00
H2       0.12633    0.10680    1.05144   1.00
H2       0.17781    0.12984    1.02950   1.00
H2       0.20532    0.18249    1.05128   1.00
C4       0.14457    0.82586    0.94680   1.00
C4       0.17299    0.79788    0.96055   1.00
C3       0.18123    0.86909    0.93032   1.00
C3       0.24255    0.81523    0.96031   1.00
C3       0.07601    0.81098    0.94975   1.00
C3       0.12996    0.74965    0.97541   1.00
C2       0.08455    0.88314    0.92029   1.00
C2       0.22692    0.74021    0.98916   1.00
C3       0.15223    0.89727    0.91749   1.00
C3       0.26867    0.78673    0.97409   1.00
C3       0.04727    0.83889    0.93641   1.00
C3       0.15793    0.72376    0.98971   1.00
H1       0.23000    0.88117    0.92711   1.00
H1       0.27639    0.84940    0.95020   1.00
C5       0.03653    0.76808    0.96594   1.00
C5       0.05943    0.72794    0.97606   1.00
H1       0.18137    0.92859    0.90591   1.00
H1       0.31925    0.80073    0.97309   1.00
H1       -0.00257   0.82624    0.93836   1.00
H1       0.12744    0.69267    1.00105   1.00
O3       -0.02504   0.76301    0.97078   1.00
O3       0.01470    0.67205    0.98746   1.00
Si1      -0.02832   0.81249    0.98822   1.00
Si1      -0.01700   0.59610    0.97759   1.00
C6       -0.11416   0.79020    0.98437   1.00
C6       -0.01737   0.78294    1.01188   1.00
C6       0.02747    0.90006    0.98356   1.00
C6       0.00988    0.58881    0.95300   1.00
C6       0.00689    0.55321    0.99502   1.00
C6       -0.10645   0.55813    0.97832   1.00
C6       -0.13593   0.78976    0.96176   1.00
H2       -0.14158   0.73690    0.98916   1.00
C6       -0.14693   0.82604    0.99663   1.00
H2       -0.03479   0.72945    1.00864   1.00
C6       0.05664    0.81326    1.02044   1.00
C6       -0.06128   0.78246    1.03028   1.00
H2       0.01724    0.90482    0.96762   1.00
C6       0.01398    0.95207    0.99546   1.00
C6       0.10662    0.93011    0.98541   1.00
C6       -0.00060   0.62872    0.93532   1.00
C6       0.08265    0.59807    0.94995   1.00
H2       -0.02425   0.53503    0.94953   1.00
H2       0.06196    0.57709    0.99303   1.00
C6       -0.00380   0.56316    1.01797   1.00
C6       -0.02283   0.47497    0.99177   1.00
H2       -0.11977   0.53954    0.99387   1.00
C6       -0.13575   0.60689    0.97534   1.00
C6       -0.14970   0.49504    0.96432   1.00
H2       -0.12500   0.75670    0.95234   1.00
H2       -0.10931   0.84098    0.95524   1.00
H2       -0.19074   0.77047    0.96057   1.00
H2       -0.20092   0.79007    0.99939   1.00
H2       -0.12284   0.84514    1.01127   1.00
H2       -0.14468   0.86894    0.98837   1.00
H2       0.05803    0.78125    1.03264   1.00
H2       0.09233    0.81584    1.00894   1.00
H2       0.07526    0.86423    1.02666   1.00
H2       -0.11568   0.75331    1.02687   1.00
H2       -0.05351   0.75821    1.04358   1.00
H2       -0.04790   0.83425    1.03461   1.00
H2       0.01166    0.94299    1.01178   1.00
H2       0.05368    1.00492    0.99269   1.00
H2       -0.03321   0.94924    0.99061   1.00
H2       0.12482    0.94604    1.00088   1.00
H2       0.12318    0.89477    0.98083   1.00
H2       0.13359    0.97516    0.97575   1.00
H2       0.04055    0.68155    0.93467   1.00
H2       -0.00133   0.60555    0.92071   1.00
H2       -0.04864   0.62848    0.93663   1.00
H2       0.08797    0.58266    0.93464   1.00
H2       0.12288    0.65079    0.95184   1.00
H2       0.09248    0.56651    0.96035   1.00
H2       0.02288    0.54459    1.02757   1.00
H2       0.01687    0.61701    1.02166   1.00
H2       -0.05757   0.53572    1.02221   1.00
H2       -0.01576   0.46332    0.97621   1.00
H2       0.00318    0.45621    1.00161   1.00
H2       -0.07713   0.44613    0.99541   1.00
H2       -0.12345   0.63107    0.96044   1.00
H2       -0.19109   0.58012    0.97719   1.00
H2       -0.11456   0.64695    0.98669   1.00
H2       -0.20372   0.47002    0.96839   1.00
H2       -0.14522   0.50996    0.94839   1.00
H2       -0.13420   0.45675    0.96577   1.00
C4       0.14320    0.31296    0.44896   1.00
C4       0.17197    0.37084    0.46215   1.00
C3       0.17115    0.26961    0.44628   1.00
C3       0.23483    0.39474    0.47254   1.00
C3       0.08375    0.29767    0.43750   1.00
C3       0.13633    0.40720    0.46531   1.00
C2       0.08396    0.19890    0.42123   1.00
C2       0.22751    0.48922    0.48822   1.00
C3       0.14261    0.21438    0.43272   1.00
C3       0.26155    0.45191    0.48536   1.00
C3       0.05499    0.24096    0.42418   1.00
C3       0.16557    0.46640    0.47761   1.00
H1       0.21292    0.27676    0.45416   1.00
H1       0.26325    0.37158    0.47099   1.00
C5       0.05324    0.33895    0.43947   1.00
C5       0.07206    0.38477    0.45606   1.00
H1       0.16533    0.18511    0.43130   1.00
H1       0.30692    0.46651    0.49261   1.00
H1       0.01125    0.22949    0.41648   1.00
H1       0.14156    0.49436    0.47868   1.00
O3       0.00321    0.33114    0.42604   1.00
O3       0.03078    0.41051    0.46199   1.00
Si1      0.02374    0.37885    0.40577   1.00
Si1      -0.01946   0.37652    0.48149   1.00
C6       -0.05711   0.33633    0.39402   1.00
C6       0.04469    0.46152    0.41360   1.00
C6       0.08608    0.37473    0.39072   1.00
C6       -0.01643   0.31008    0.49466   1.00
C6       0.00511    0.44617    0.49784   1.00
C6       -0.10321   0.34907    0.47320   1.00
C6       -0.09273   0.25656    0.39336   1.00
H2       -0.08801   0.34753    0.40432   1.00
C6       -0.06849   0.35798    0.37240   1.00
H2       0.01627    0.45120    0.42777   1.00
C6       0.12062    0.51334    0.41911   1.00
C6       0.02085    0.50280    0.40020   1.00
H2       0.06640    0.31982    0.38977   1.00
C6       0.09427    0.40066    0.36830   1.00
C6       0.16134    0.40738    0.39875   1.00
C6       -0.03033   0.24522    0.48242   1.00
C6       0.04539    0.32737    0.50897   1.00
H2       -0.05934   0.29266    0.50511   1.00
H2       0.05562    0.45814    0.50306   1.00
C6       0.01523    0.51332    0.48783   1.00
C6       -0.03895   0.43418    0.51731   1.00
H2       -0.10680   0.39539    0.47334   1.00
C6       -0.12036   0.32227    0.45097   1.00
C6       -0.16374   0.29600    0.48657   1.00
H2       -0.09731   0.23510    0.40850   1.00
H2       -0.06425   0.23983    0.38388   1.00
H2       -0.14446   0.23404    0.38728   1.00
H2       -0.12002   0.35038    0.37126   1.00
H2       -0.03298   0.41118    0.36895   1.00
H2       -0.06385   0.32741    0.36036   1.00
H2       0.12431    0.55641    0.42768   1.00
H2       0.14303    0.49044    0.42863   1.00
H2       0.15177    0.53383    0.40549   1.00
H2       -0.03423   0.47466    0.39788   1.00
H2       0.03242    0.55083    0.40749   1.00
H2       0.04628    0.51521    0.38546   1.00
H2       0.10263    0.45249    0.36771   1.00
H2       0.13708    0.40064    0.36060   1.00
H2       0.04973    0.36749    0.35925   1.00
H2       0.19178    0.46131    0.39484   1.00
H2       0.16472    0.40367    0.41505   1.00
H2       0.18649    0.38163    0.39197   1.00
H2       0.01530    0.25245    0.47467   1.00
H2       -0.04672   0.20162    0.49259   1.00
H2       -0.07045   0.23084    0.47118   1.00
H2       0.03527    0.28295    0.51811   1.00
H2       0.09212    0.34229    0.50056   1.00
H2       0.05503    0.36794    0.51967   1.00
H2       0.04136    0.55628    0.49830   1.00
H2       0.04683    0.52627    0.47421   1.00
H2       -0.03323   0.50943    0.48366   1.00
H2       -0.04699   0.38916    0.52567   1.00
H2       -0.01326   0.47762    0.52764   1.00
H2       -0.08860   0.42832    0.51359   1.00
H2       -0.11600   0.27694    0.44863   1.00
H2       -0.17182   0.31012    0.44666   1.00
H2       -0.08545   0.36133    0.44058   1.00
H2       -0.21204   0.29114    0.48157   1.00
H2       -0.16876   0.24550    0.48567   1.00
H2       -0.15737   0.31131    0.50246   1.00
C4       0.68475    0.82165    0.44808   1.00
C4       0.62818    0.79386    0.46177   1.00
C3       0.73878    0.80704    0.44915   1.00
C3       0.62311    0.75378    0.47895   1.00
C3       0.68858    0.86750    0.43260   1.00
C3       0.57318    0.80634    0.45821   1.00
C2       0.79908    0.88256    0.42047   1.00
C2       0.51280    0.74079    0.48898   1.00
C3       0.79457    0.83692    0.43580   1.00
C3       0.56673    0.72742    0.49208   1.00
C3       0.74466    0.89612    0.41904   1.00
C3       0.51824    0.78176    0.47211   1.00
H1       0.73906    0.77407    0.45960   1.00
H1       0.66041    0.74290    0.48251   1.00
C5       0.63624    0.88424    0.43069   1.00
C5       0.57350    0.84372    0.44093   1.00
H1       0.83238    0.82482    0.43739   1.00
H1       0.56555    0.69827    0.50417   1.00
H1       0.74577    0.92743    0.40766   1.00
H1       0.48144    0.79479    0.47007   1.00
O3       0.64551    0.93672    0.41808   1.00
O3       0.51552    0.84489    0.43502   1.00
Si1      0.67584    1.01354    0.42722   1.00
Si1      0.45960    0.78316    0.42083   1.00
C6       0.68654    1.05565    0.40383   1.00
C6       0.61076    1.01394    0.44179   1.00
C6       0.75450    1.04398    0.43989   1.00
C6       0.47460    0.71597    0.41442   1.00
C6       0.38423    0.75074    0.43509   1.00
C6       0.44922    0.82059    0.39869   1.00
C6       0.72258    1.03729    0.38666   1.00
H2       0.63394    1.03491    0.39874   1.00
C6       0.71927    1.13523    0.40282   1.00
H2       0.56494    0.97234    0.43494   1.00
C6       0.60639    0.99634    0.46489   1.00
C6       0.60139    1.07781    0.44067   1.00
H2       0.78348    1.03169    0.42913   1.00
C6       0.79807    1.12272    0.44368   1.00
C6       0.75675    1.01145    0.46074   1.00
C6       0.54263    0.73438    0.40327   1.00
C6       0.46359    0.66123    0.43079   1.00
H2       0.43440    0.68722    0.40336   1.00
H2       0.39313    0.72576    0.44792   1.00
C6       0.36867    0.80482    0.44464   1.00
C6       0.31671    0.69566    0.42481   1.00
H2       0.41426    0.83819    0.40326   1.00
C6       0.51392    0.88561    0.39077   1.00
C6       0.41596    0.77384    0.37973   1.00
H2       0.69649    0.98242    0.38386   1.00
H2       0.77551    1.05397    0.39061   1.00
H2       0.72250    1.06139    0.37230   1.00
H2       0.69637    1.14912    0.39045   1.00
H2       0.71220    1.15686    0.41670   1.00
H2       0.77398    1.16098    0.39976   1.00
H2       0.55674    0.98412    0.47108   1.00
H2       0.61184    0.95193    0.46765   1.00
H2       0.64535    1.03927    0.47355   1.00
H2       0.59372    1.08878    0.42508   1.00
H2       0.55628    1.06951    0.44913   1.00
H2       0.64540    1.12277    0.44707   1.00
H2       0.76832    1.14165    0.45151   1.00
H2       0.84345    1.13629    0.45283   1.00
H2       0.81732    1.15049    0.42955   1.00
H2       0.74730    1.03612    0.47355   1.00
H2       0.72012    0.95748    0.46180   1.00
H2       0.80717    1.01709    0.46303   1.00
H2       0.58476    0.75010    0.41388   1.00
H2       0.53750    0.69010    0.39505   1.00
H2       0.55693    0.77494    0.39219   1.00
H2       0.46542    0.61832    0.42382   1.00
H2       0.50265    0.68158    0.44250   1.00
H2       0.41389    0.63981    0.43811   1.00
H2       0.32786    0.78084    0.45589   1.00
H2       0.41319    0.84485    0.45253   1.00
H2       0.35269    0.82893    0.43325   1.00
H2       0.32220    0.65450    0.41820   1.00
H2       0.27564    0.67241    0.43601   1.00
H2       0.30024    0.71792    0.41295   1.00
H2       0.55424    0.87516    0.38639   1.00
H2       0.50227    0.90787    0.37775   1.00
H2       0.53399    0.92423    0.40256   1.00
H2       0.40284    0.80017    0.36822   1.00
H2       0.45058    0.75930    0.37273   1.00
H2       0.36884    0.72743    0.38364   1.00
C4       0.17378    -0.13861   0.44916   1.00
C4       0.20183    -0.16800   0.46252   1.00
C3       0.12713    -0.11765   0.45547   1.00
C3       0.18135    -0.18506   0.48305   1.00
C3       0.19226    -0.13042   0.42822   1.00
C3       0.25340    -0.18117   0.45515   1.00
C2       0.11675    -0.08274   0.42101   1.00
C2       0.25990    -0.22873   0.48844   1.00
C3       0.09907    -0.09084   0.44178   1.00
C3       0.21001    -0.21400   0.49572   1.00
C3       0.16438    -0.10209   0.41472   1.00
C3       0.27952    -0.21304   0.46790   1.00
H1       0.11234    -0.12103   0.47021   1.00
H1       0.14470    -0.17736   0.48937   1.00
C5       0.23869    -0.15032   0.42092   1.00
C5       0.27824    -0.16309   0.43505   1.00
H1       0.06519    -0.07702   0.44718   1.00
H1       0.19364    -0.22473   0.51048   1.00
H1       0.17956    -0.09477   0.39986   1.00
H1       0.31320    -0.22611   0.46202   1.00
O3       0.24759    -0.15303   0.40034   1.00
O3       0.33677    -0.16274   0.42890   1.00
Si1      0.20258    -0.22471   0.38813   1.00
Si1      0.41058    -0.09508   0.43325   1.00
C6       0.22801    -0.19158   0.36342   1.00
C6       0.23470    -0.27878   0.39473   1.00
C6       0.11381    -0.26033   0.39144   1.00
C6       0.41217    -0.02637   0.44647   1.00
C6       0.45396    -0.12722   0.44742   1.00
C6       0.45220    -0.06701   0.40970   1.00
C6       0.22578    -0.12494   0.35857   1.00
H2       0.28203    -0.17628   0.36341   1.00
C6       0.19690    -0.23825   0.34425   1.00
H2       0.28705    -0.24221   0.39905   1.00
C6       0.20285    -0.32722   0.41340   1.00
C6       0.24049    -0.32413   0.37782   1.00
H2       0.10704    -0.21641   0.38883   1.00
C6       0.06593    -0.31622   0.37589   1.00
C6       0.08084    -0.29055   0.41265   1.00
C6       0.37095    0.00598    0.43746   1.00
C6       0.39893    -0.03221   0.46991   1.00
H2       0.46562    0.01325    0.44518   1.00
H2       0.42759    -0.14042   0.46199   1.00
C6       0.44867    -0.19480   0.43940   1.00
C6       0.53100    -0.07737   0.45214   1.00
H2       0.47355    -0.10010   0.40689   1.00
C6       0.40581    -0.07741   0.39101   1.00
C6       0.51341    0.00781    0.40819   1.00
H2       0.25577    -0.08452   0.36946   1.00
H2       0.17352    -0.13429   0.35887   1.00
H2       0.24714    -0.10497   0.34358   1.00
H2       0.23510    -0.22171   0.33220   1.00
H2       0.17954    -0.29163   0.34731   1.00
H2       0.15370    -0.23547   0.33798   1.00
H2       0.23594    -0.34665   0.41846   1.00
H2       0.19660    -0.30108   0.42636   1.00
H2       0.15338    -0.37111   0.40962   1.00
H2       0.27105    -0.29338   0.36505   1.00
H2       0.26589    -0.35116   0.38349   1.00
H2       0.19018    -0.36238   0.37231   1.00
H2       0.07760    -0.35746   0.37498   1.00
H2       0.01205    -0.33868   0.37994   1.00
H2       0.07029    -0.29477   0.36086   1.00
H2       0.06701    -0.34394   0.41420   1.00
H2       0.11358    -0.26341   0.42536   1.00
H2       0.03405    -0.28824   0.41457   1.00
H2       0.31738    -0.02261   0.44177   1.00
H2       0.39108    0.05797    0.44311   1.00
H2       0.37388    0.00908    0.42098   1.00
H2       0.41108    0.01724    0.47626   1.00
H2       0.34593    -0.06776   0.47365   1.00
H2       0.43084    -0.04797   0.47796   1.00
H2       0.46696    -0.21675   0.45088   1.00
H2       0.39587    -0.23324   0.43606   1.00
H2       0.47882    -0.18644   0.42568   1.00
H2       0.53936    -0.02920   0.45842   1.00
H2       0.54954    -0.09977   0.46340   1.00
H2       0.56243    -0.06656   0.43857   1.00
H2       0.37918    -0.04864   0.39236   1.00
H2       0.43498    -0.06243   0.37690   1.00
H2       0.36767    -0.13096   0.38956   1.00
H2       0.54118    0.01556    0.39396   1.00
H2       0.49601    0.04493    0.40871   1.00
H2       0.55008    0.01953    0.42041   1.00
C4       0.31687    0.13810    0.05253   1.00
C4       0.37322    0.16632    0.03876   1.00
C3       0.28008    0.06806    0.05795   1.00
C3       0.39442    0.12642    0.02765   1.00
C3       0.29498    0.18169    0.06121   1.00
C3       0.41103    0.23842    0.03584   1.00
C2       0.20136    0.08437    0.07969   1.00
C2       0.48676    0.22710    0.01086   1.00
C3       0.22368    0.04182    0.07106   1.00
C3       0.45001    0.15599    0.01423   1.00
C3       0.23875    0.15446    0.07471   1.00
C3       0.46504    0.26691    0.02160   1.00
H1       0.29333    0.03410    0.05258   1.00
H1       0.36984    0.07467    0.02889   1.00
C5       0.32956    0.25225    0.05643   1.00
C5       0.39446    0.28168    0.04699   1.00
H1       0.19874    -0.00936   0.07431   1.00
H1       0.46340    0.12466    0.00673   1.00
H1       0.22481    0.18668    0.08126   1.00
H1       0.48878    0.31810    0.01872   1.00
O3       0.30169    0.29170    0.06207   1.00
O3       0.43805    0.35143    0.04746   1.00
Si1      0.25321    0.30355    0.04619   1.00
Si1      0.50024    0.38305    0.06390   1.00
C6       0.22572    0.34499    0.06325   1.00
C6       0.30658    0.35993    0.02725   1.00
C6       0.18387    0.22676    0.03711   1.00
C6       0.51061    0.32597    0.07978   1.00
C6       0.57295    0.42786    0.04864   1.00
C6       0.49104    0.44284    0.07864   1.00
C6       0.20069    0.31015    0.08450   1.00
H2       0.27288    0.39268    0.06625   1.00
C6       0.17244    0.36635    0.05660   1.00
H2       0.35536    0.38736    0.03514   1.00
C6       0.32058    0.32914    0.00782   1.00
C6       0.29151    0.41613    0.01923   1.00
H2       0.16347    0.19743    0.05107   1.00
C6       0.12337    0.23093    0.02704   1.00
C6       0.19745    0.18055    0.02225   1.00
C6       0.44909    0.27617    0.09338   1.00
C6       0.54136    0.28304    0.07083   1.00
H2       0.54973    0.36054    0.09037   1.00
H2       0.57718    0.38777    0.04076   1.00
C6       0.56817    0.47319    0.03150   1.00
C6       0.64263    0.47284    0.05963   1.00
H2       0.51305    0.48861    0.06922   1.00
C6       0.41656    0.42617    0.08294   1.00
C6       0.52946    0.46516    0.09944   1.00
H2       0.23949    0.30276    0.09202   1.00
H2       0.15445    0.26038    0.08310   1.00
H2       0.18960    0.34158    0.09464   1.00
H2       0.18305    0.41341    0.06432   1.00
H2       0.17315    0.37531    0.04039   1.00
H2       0.12032    0.32806    0.06066   1.00
H2       0.36469    0.36829    -0.00046   1.00
H2       0.33228    0.28924    0.01148   1.00
H2       0.27705    0.30829    -0.00249   1.00
H2       0.29065    0.44780    0.03157   1.00
H2       0.33116    0.45082    0.00873   1.00
H2       0.24290    0.39347    0.01116   1.00
H2       0.14149    0.26871    0.01488   1.00
H2       0.08511    0.18199    0.02062   1.00
H2       0.09600    0.24372    0.03811   1.00
H2       0.19875    0.19530    0.00642   1.00
H2       0.24490    0.18135    0.02520   1.00
H2       0.15668    0.12743    0.02361   1.00
H2       0.41290    0.23079    0.08506   1.00
H2       0.46684    0.25887    0.10628   1.00
H2       0.42173    0.30025    0.09955   1.00
H2       0.55346    0.25789    0.08298   1.00
H2       0.50616    0.24316    0.06063   1.00
H2       0.58891    0.31465    0.06269   1.00
H2       0.61045    0.48939    0.02081   1.00
H2       0.52116    0.44502    0.02274   1.00
H2       0.57004    0.51891    0.03757   1.00
H2       0.65134    0.44457    0.07153   1.00
H2       0.68485    0.48989    0.04887   1.00
H2       0.64542    0.51827    0.06634   1.00
H2       0.38794    0.37942    0.09171   1.00
H2       0.41538    0.46753    0.09111   1.00
H2       0.38984    0.41967    0.06871   1.00
H2       0.52831    0.50946    0.10557   1.00
H2       0.50618    0.42434    0.11068   1.00
H2       0.58300    0.47982    0.09791   1.00
C4       0.82138    0.68420    0.05212   1.00
C4       0.79350    0.62772    0.03841   1.00
C3       0.79946    0.73294    0.05305   1.00
C3       0.74547    0.61785    0.02303   1.00
C3       0.87491    0.69357    0.06552   1.00
C3       0.81426    0.57786    0.04002   1.00
C2       0.88266    0.79891    0.07959   1.00
C2       0.74069    0.51297    0.01096   1.00
C3       0.82949    0.78894    0.06632   1.00
C3       0.71929    0.56173    0.00981   1.00
C3       0.90366    0.74968    0.07906   1.00
C3       0.78947    0.52328    0.02599   1.00
H1       0.76088    0.72906    0.04417   1.00
H1       0.72842    0.65135    0.02091   1.00
C5       0.89918    0.64666    0.06537   1.00
C5       0.86005    0.58296    0.05549   1.00
H1       0.81186    0.82281    0.06622   1.00
H1       0.68424    0.55690    -0.00091   1.00
H1       0.94071    0.75469    0.08897   1.00
H1       0.80813    0.49047    0.02652   1.00
O3       0.95791    0.66186    0.07576   1.00
O3       0.87024    0.52902    0.05987   1.00
Si1      1.03120    0.69920    0.06401   1.00
Si1      0.81764    0.46965    0.07532   1.00
C6       1.08311    0.71470    0.08559   1.00
C6       1.03343    0.63812    0.04794   1.00
C6       1.04905    0.77612    0.05202   1.00
C6       0.74814    0.47578    0.08505   1.00
C6       0.78686    0.39503    0.06078   1.00
C6       0.86659    0.46486    0.09534   1.00
C6       1.06644    0.74654    0.10431   1.00
H2       1.06946    0.66315    0.09027   1.00
C6       1.16296    0.75483    0.08383   1.00
H2       0.99787    0.59044    0.05547   1.00
C6       1.00655    0.63147    0.02572   1.00
C6       1.10175    0.63700    0.04597   1.00
H2       1.03705    0.80196    0.06396   1.00
C6       1.12490    0.82619    0.04582   1.00
C6       1.00666    0.77393    0.03287   1.00
C6       0.76390    0.54180    0.09696   1.00
C6       0.68579    0.45862    0.07100   1.00
H2       0.72700    0.43498    0.09631   1.00
H2       0.75472    0.40011    0.04939   1.00
C6       0.84149    0.38675    0.04850   1.00
C6       0.74103    0.32553    0.07176   1.00
H2       0.88724    0.43418    0.08917   1.00
C6       0.93023    0.53327    0.10188   1.00
C6       0.82891    0.42855    0.11541   1.00
H2       1.01315    0.71565    0.10891   1.00
H2       1.07626    0.79795    0.10095   1.00
H2       1.09724    0.74963    0.11747   1.00
H2       1.18494    0.73532    0.09491   1.00
H2       1.18099    0.75052    0.06893   1.00
H2       1.18478    0.80911    0.08706   1.00
H2       0.99707    0.58347    0.01890   1.00
H2       0.95840    0.63120    0.02511   1.00
H2       1.04359    0.67284    0.01618   1.00
H2       1.12016    0.63145    0.06074   1.00
H2       1.09497    0.59367    0.03685   1.00
H2       1.14121    0.68339    0.03870   1.00
H2       1.14508    0.80048    0.03648   1.00
H2       1.13032    0.87005    0.03726   1.00
H2       1.15724    0.84779    0.05906   1.00
H2       1.02857    0.76778    0.01882   1.00
H2       0.95402    0.73322    0.03332   1.00
H2       1.00587    0.82169    0.03158   1.00
H2       0.77136    0.58285    0.08678   1.00
H2       0.72138    0.53188    0.10696   1.00
H2       0.80899    0.56023    0.10648   1.00
H2       0.64342    0.45534    0.07987   1.00
H2       0.69802    0.49733    0.05944   1.00
H2       0.66626    0.40945    0.06347   1.00
H2       0.81672    0.34551    0.03742   1.00
H2       0.87515    0.43300    0.03999   1.00
H2       0.87297    0.37492    0.05833   1.00
H2       0.69991    0.32588    0.08029   1.00
H2       0.71707    0.28413    0.06069   1.00
H2       0.77081    0.31303    0.08213   1.00
H2       0.91637    0.56980    0.10769   1.00
H2       0.95991    0.52530    0.11351   1.00
H2       0.96371    0.55641    0.08896   1.00
H2       0.86243    0.41966    0.12532   1.00
H2       0.81244    0.45933    0.12385   1.00
H2       0.78427    0.37889    0.11245   1.00
C4       -0.13861   0.17378    0.05084   1.00
C4       -0.16801   0.20182    0.03748   1.00
C3       -0.11773   0.12705    0.04453   1.00
C3       -0.18514   0.18128    0.01696   1.00
C3       -0.13035   0.19233    0.07177   1.00
C3       -0.18109   0.25346    0.04485   1.00
C2       -0.08274   0.11675    0.07899   1.00
C2       -0.22873   0.25990    0.01156   1.00
C3       -0.09092   0.09900    0.05823   1.00
C3       -0.21408   0.20995    0.00429   1.00
C3       -0.10201   0.16444    0.08527   1.00
C3       -0.21296   0.27959    0.03209   1.00
H1       -0.12117   0.11221    0.02979   1.00
H1       -0.17751   0.14459    0.01064   1.00
C5       -0.15016   0.23882    0.07907   1.00
C5       -0.16293   0.27835    0.06493   1.00
H1       -0.07716   0.06507    0.05282   1.00
H1       -0.22487   0.19354    -0.01047   1.00
H1       -0.09463   0.17967    0.10013   1.00
H1       -0.22596   0.31332    0.03797   1.00
O3       -0.15280   0.24780    0.09965   1.00
O3       -0.16250   0.33694    0.07107   1.00
Si1      -0.22444   0.20287    0.11188   1.00
Si1      -0.09481   0.41070    0.06670   1.00
C6       -0.19123   0.22836    0.13658   1.00
C6       -0.27847   0.23504    0.10529   1.00
C6       -0.26015   0.11408    0.10860   1.00
C6       -0.02618   0.41218    0.05346   1.00
C6       -0.12694   0.45409    0.05252   1.00
C6       -0.06663   0.45239    0.09023   1.00
C6       -0.12460   0.22608    0.14142   1.00
H2       -0.17587   0.28240    0.13657   1.00
C6       -0.23784   0.19734    0.15576   1.00
H2       -0.24188   0.28737    0.10094   1.00
C6       -0.32698   0.20317    0.08663   1.00
C6       -0.32373   0.24094    0.12221   1.00
H2       -0.21625   0.10727    0.11120   1.00
C6       -0.31600   0.06629    0.12416   1.00
C6       -0.29045   0.08106    0.08739   1.00
C6       0.00615    0.37094    0.06248   1.00
C6       -0.03211   0.39886    0.03003   1.00
H2       0.01348    0.46562    0.05473   1.00
H2       -0.14021   0.42767    0.03796   1.00
C6       -0.19446   0.44889    0.06056   1.00
C6       -0.07704   0.53110    0.04778   1.00
H2       -0.09968   0.47379    0.09304   1.00
C6       -0.07702   0.40605    0.10893   1.00
C6       0.00821    0.51356    0.09171   1.00
H2       -0.08421   0.25601    0.13052   1.00
H2       -0.13400   0.17381    0.14113   1.00
H2       -0.10457   0.24748    0.15639   1.00
H2       -0.22123   0.23559    0.16780   1.00
H2       -0.29121   0.18003    0.15272   1.00
H2       -0.23508   0.15415    0.16204   1.00
H2       -0.34639   0.23628    0.08157   1.00
H2       -0.30091   0.19684    0.07367   1.00
H2       -0.37089   0.15374    0.09043   1.00
H2       -0.29293   0.27153    0.13496   1.00
H2       -0.35074   0.26636    0.11653   1.00
H2       -0.36200   0.19067    0.12773   1.00
H2       -0.35721   0.07801    0.12508   1.00
H2       -0.33852   0.01239    0.12013   1.00
H2       -0.29451   0.07068    0.13919   1.00
H2       -0.34383   0.06727    0.08586   1.00
H2       -0.26334   0.11375    0.07468   1.00
H2       -0.28820   0.03423    0.08549   1.00
H2       -0.02250   0.31735    0.05818   1.00
H2       0.05810    0.39100    0.05681   1.00
H2       0.00930    0.37392    0.07895   1.00
H2       0.01731    0.41095    0.02366   1.00
H2       -0.06770   0.34586    0.02631   1.00
H2       -0.04785   0.43077    0.02197   1.00
H2       -0.21642   0.46718    0.04908   1.00
H2       -0.23293   0.39612    0.06391   1.00
H2       -0.18603   0.47909    0.07427   1.00
H2       -0.02892   0.53940    0.04148   1.00
H2       -0.09946   0.54964    0.03652   1.00
H2       -0.06617   0.56258    0.06134   1.00
H2       -0.04830   0.37937    0.10758   1.00
H2       -0.06197   0.43527    0.12304   1.00
H2       -0.13057   0.36795    0.11040   1.00
H2       0.01604    0.54139    0.10594   1.00
H2       0.04529    0.49612    0.09119   1.00
H2       0.01993    0.55020    0.07949   1.00
C4       0.52939    1.02023    0.88444   1.00
C4       0.50084    0.96234    0.87125   1.00
C3       0.60034    1.06114    0.88831   1.00
C3       0.53960    0.93594    0.86209   1.00
C3       0.48491    1.03807    0.89465   1.00
C3       0.42964    0.92861    0.86680   1.00
C2       0.58283    1.13443    0.91210   1.00
C2       0.43904    0.84411    0.84511   1.00
C3       0.62633    1.11643    0.90184   1.00
C3       0.50971    0.87885    0.84923   1.00
C3       0.51226    1.09482    0.90795   1.00
C3       0.40001    0.86942    0.85450   1.00
H1       0.63522    1.05211    0.88137   1.00
H1       0.59061    0.95715    0.86460   1.00
C5       0.41344    0.99930    0.89144   1.00
C5       0.38822    0.95364    0.87477   1.00
H1       0.67807    1.14387    0.90416   1.00
H1       0.54035    0.86238    0.84290   1.00
H1       0.47991    1.10815    0.91473   1.00
H1       0.34830    0.84332    0.85251   1.00
O3       0.37010    1.00940    0.90375   1.00
O3       0.32295    0.93052    0.86756   1.00
Si1      0.33725    0.96200    0.92387   1.00
Si1      0.31272    0.96599    0.84734   1.00
C6       0.29975    1.00742    0.93419   1.00
C6       0.27468    0.88035    0.91554   1.00
C6       0.39909    0.96306    0.94042   1.00
C6       0.38621    1.03055    0.83509   1.00
C6       0.26869    0.89682    0.83074   1.00
C6       0.25768    0.99685    0.85395   1.00
C6       0.34651    1.08692    0.93499   1.00
H2       0.26031    0.99796    0.92304   1.00
C6       0.26224    0.98697    0.95522   1.00
H2       0.26042    0.89172    0.90085   1.00
C6       0.29666    0.82613    0.91121   1.00
C6       0.20664    0.84133    0.92782   1.00
H2       0.43589    1.01756    0.94157   1.00
C6       0.37607    0.93749    0.96266   1.00
C6       0.44050    0.92754    0.93379   1.00
C6       0.43655    1.09452    0.84777   1.00
C6       0.43151    1.01063    0.82207   1.00
H2       0.36437    1.04956    0.82385   1.00
H2       0.30661    0.88268    0.82659   1.00
C6       0.20788    0.83091    0.84015   1.00
C6       0.24198    0.91055    0.81042   1.00
H2       0.20687    0.95187    0.85315   1.00
C6       0.26397    1.02392    0.87604   1.00
C6       0.25573    1.05146    0.83982   1.00
H2       0.36701    1.10799    0.92004   1.00
H2       0.38943    1.10190    0.94533   1.00
H2       0.31802    1.11142    0.94010   1.00
H2       0.21967    0.99689    0.95523   1.00
H2       0.24170    0.93341    0.95885   1.00
H2       0.29560    1.01661    0.96772   1.00
H2       0.25792    0.78391    0.90222   1.00
H2       0.34376    0.84732    0.90252   1.00
H2       0.30329    0.80471    0.92528   1.00
H2       0.18137    0.87144    0.92918   1.00
H2       0.17024    0.79391    0.92024   1.00
H2       0.21575    0.82807    0.94298   1.00
H2       0.33111    0.88656    0.96281   1.00
H2       0.41619    0.93548    0.97136   1.00
H2       0.36486    0.97204    0.97104   1.00
H2       0.41420    0.87351    0.93776   1.00
H2       0.45083    0.93092    0.91767   1.00
H2       0.48993    0.95146    0.94148   1.00
H2       0.47198    1.08529    0.85650   1.00
H2       0.46720    1.13776    0.83777   1.00
H2       0.40999    1.11053    0.85820   1.00
H2       0.46889    1.05437    0.81326   1.00
H2       0.46002    0.99386    0.83138   1.00
H2       0.40154    0.97055    0.81113   1.00
H2       0.19148    0.78772    0.82980   1.00
H2       0.22267    0.81682    0.85432   1.00
H2       0.16391    0.83708    0.84320   1.00
H2       0.28184    0.95478    0.80245   1.00
H2       0.22462    0.86690    0.80020   1.00
H2       0.19894    0.91869    0.81303   1.00
H2       0.31408    1.06791    0.87904   1.00
H2       0.22549    1.03829    0.87927   1.00
H2       0.25592    0.98420    0.88676   1.00
H2       0.21273    1.05857    0.84372   1.00
H2       0.30229    1.10094    0.84123   1.00
H2       0.24944    1.03615    0.82394   1.00
C4       -0.01452   0.50824    0.88657   1.00
C4       0.04196    0.53611    0.87285   1.00
C3       -0.01690   0.47299    0.90464   1.00
C3       0.09884    0.52618    0.87486   1.00
C3       -0.07259   0.51476    0.88196   1.00
C3       0.04230    0.57642    0.85616   1.00
C2       -0.13202   0.45040    0.91300   1.00
C2       0.15348    0.59291    0.84421   1.00
C3       -0.07415   0.44452    0.91744   1.00
C3       0.15338    0.55431    0.86105   1.00
C3       -0.12933   0.48678    0.89527   1.00
C3       0.09635    0.60185    0.84193   1.00
H1       0.02299    0.46717    0.90906   1.00
H1       0.10213    0.49787    0.88634   1.00
C5       -0.07349   0.54943    0.86413   1.00
C5       -0.01149   0.59067    0.85362   1.00
H1       -0.07316   0.41915    0.93022   1.00
H1       0.19343    0.54593    0.86336   1.00
H1       -0.16984   0.49350    0.89205   1.00
H1       0.09372    0.62690    0.82936   1.00
O3       -0.13338   0.54582    0.85800   1.00
O3       -0.00584   0.64001    0.84015   1.00
Si1      -0.18286   0.48749    0.84176   1.00
Si1      0.03186    0.71934    0.84759   1.00
C6       -0.25232   0.50212    0.84339   1.00
C6       -0.14306   0.51150    0.81782   1.00
C6       -0.20646   0.40389    0.84949   1.00
C6       0.06639    0.73871    0.87235   1.00
C6       0.09764    0.76102    0.82978   1.00
C6       -0.02659   0.74837    0.84423   1.00
C6       -0.27534   0.50791    0.86537   1.00
H2       -0.23104   0.55309    0.83687   1.00
C6       -0.32014   0.45642    0.83139   1.00
H2       -0.11127   0.56665    0.81948   1.00
C6       -0.09346   0.48542    0.81148   1.00
C6       -0.18837   0.50042    0.79869   1.00
H2       -0.22205   0.40326    0.86521   1.00
C6       -0.26918   0.34364    0.83860   1.00
C6       -0.15136   0.38104    0.84989   1.00
C6       0.01751    0.70181    0.89059   1.00
C6       0.13419    0.73862    0.87702   1.00
H2       0.08088    0.79228    0.87389   1.00
H2       0.13311    0.74315    0.83339   1.00
C6       0.07759    0.74132    0.80703   1.00
C6       0.13972    0.84066    0.83063   1.00
H2       -0.02279   0.76086    0.82811   1.00
C6       -0.10323   0.69487    0.84773   1.00
C6       -0.01320   0.81430    0.85583   1.00
H2       -0.23304   0.54713    0.87419   1.00
H2       -0.29555   0.45963    0.87355   1.00
H2       -0.31492   0.52211    0.86504   1.00
H2       -0.34312   0.48682    0.82676   1.00
H2       -0.31239   0.43413    0.81777   1.00
H2       -0.35822   0.41461    0.84061   1.00
H2       -0.06167   0.51489    0.79867   1.00
H2       -0.05861   0.49093    0.82365   1.00
H2       -0.12156   0.43202    0.80684   1.00
H2       -0.21831   0.52578    0.80034   1.00
H2       -0.15713   0.52211    0.78510   1.00
H2       -0.22278   0.44621    0.79584   1.00
H2       -0.26271   0.34719    0.82215   1.00
H2       -0.27707   0.29388    0.84334   1.00
H2       -0.31628   0.34275    0.84242   1.00
H2       -0.14679   0.36109    0.83527   1.00
H2       -0.10087   0.42164    0.85396   1.00
H2       -0.16548   0.34036    0.86105   1.00
H2       0.01120    0.65151    0.89326   1.00
H2       0.03814    0.73112    0.90455   1.00
H2       -0.03276   0.69598    0.88835   1.00
H2       0.15389    0.76074    0.89196   1.00
H2       0.12707    0.68743    0.87714   1.00
H2       0.17438    0.76922    0.86617   1.00
H2       0.12330    0.76057    0.79760   1.00
H2       0.04889    0.68602    0.80500   1.00
H2       0.04688    0.76229    0.80113   1.00
H2       0.15773    0.85914    0.84594   1.00
H2       0.18491    0.85994    0.82095   1.00
H2       0.10975    0.86324    0.82529   1.00
H2       -0.11334   0.67616    0.86330   1.00
H2       -0.13628   0.71578    0.84419   1.00
H2       -0.11827   0.65141    0.83780   1.00
H2       -0.04646   0.83276    0.85015   1.00
H2       -0.02287   0.80475    0.87207   1.00
H2       0.03906    0.85575    0.85382   1.00
C4       0.49286    0.47815    0.88650   1.00
C4       0.46482    0.50650    0.87274   1.00
C3       0.53928    0.51604    0.90224   1.00
C3       0.48509    0.57682    0.87217   1.00
C3       0.47463    0.40833    0.88434   1.00
C3       0.41348    0.46259    0.85873   1.00
C2       0.54991    0.41801    0.91305   1.00
C2       0.40678    0.56012    0.84416   1.00
C3       0.56735    0.48695    0.91508   1.00
C3       0.45643    0.60283    0.85841   1.00
C3       0.50252    0.37960    0.89769   1.00
C3       0.38737    0.49029    0.84441   1.00
H1       0.55389    0.56581    0.90488   1.00
H1       0.52156    0.61128    0.88165   1.00
C5       0.42844    0.36759    0.86892   1.00
C5       0.38886    0.39144    0.85894   1.00
H1       0.60105    0.51698    0.92610   1.00
H1       0.47264    0.65402    0.85881   1.00
H1       0.48751    0.32896    0.89632   1.00
H1       0.35387    0.45891    0.83364   1.00
O3       0.41981    0.30414    0.86471   1.00
O3       0.33050    0.34670    0.84846   1.00
Si1      0.46515    0.29568    0.84690   1.00
Si1      0.25653    0.31953    0.85928   1.00
C6       0.43993    0.20959    0.85176   1.00
C6       0.43321    0.30473    0.82342   1.00
C6       0.55385    0.34914    0.85027   1.00
C6       0.25454    0.35112    0.88364   1.00
C6       0.21318    0.34341    0.84202   1.00
C6       0.21516    0.22981    0.85973   1.00
C6       0.44197    0.19080    0.87454   1.00
H2       0.38595    0.18344    0.84770   1.00
C6       0.47138    0.17244    0.83952   1.00
H2       0.38077    0.29003    0.82729   1.00
C6       0.46496    0.37762    0.81391   1.00
C6       0.42779    0.25704    0.80547   1.00
H2       0.56047    0.34089    0.86624   1.00
C6       0.60202    0.33098    0.83806   1.00
C6       0.58661    0.42833    0.84740   1.00
C6       0.29566    0.34115    0.90105   1.00
C6       0.26750    0.42556    0.88591   1.00
H2       0.20105    0.31940    0.88789   1.00
H2       0.23939    0.39885    0.84327   1.00
C6       0.21881    0.32848    0.81912   1.00
C6       0.13605    0.31736    0.84622   1.00
H2       0.19400    0.21473    0.84449   1.00
C6       0.26172    0.19791    0.86257   1.00
C6       0.15380    0.19082    0.87466   1.00
H2       0.41175    0.20504    0.88413   1.00
H2       0.49415    0.21650    0.88036   1.00
H2       0.42075    0.13588    0.87642   1.00
H2       0.43333    0.11857    0.83758   1.00
H2       0.48886    0.19390    0.82450   1.00
H2       0.51456    0.17390    0.84737   1.00
H2       0.43194    0.37875    0.80199   1.00
H2       0.47095    0.41574    0.82503   1.00
H2       0.51454    0.39320    0.80708   1.00
H2       0.39732    0.20336    0.80965   1.00
H2       0.40247    0.26415    0.79233   1.00
H2       0.47821    0.26752    0.80057   1.00
H2       0.59053    0.32656    0.82186   1.00
H2       0.65584    0.36941    0.84000   1.00
H2       0.59777    0.28360    0.84338   1.00
H2       0.60060    0.44380    0.83164   1.00
H2       0.55368    0.44771    0.85213   1.00
H2       0.63329    0.45517    0.85641   1.00
H2       0.34919    0.38073    0.90085   1.00
H2       0.27531    0.34377    0.91585   1.00
H2       0.29292    0.29184    0.90020   1.00
H2       0.25512    0.43409    0.90128   1.00
H2       0.32049    0.46382    0.88319   1.00
H2       0.23562    0.43558    0.87571   1.00
H2       0.20050    0.35521    0.80943   1.00
H2       0.27168    0.34641    0.81477   1.00
H2       0.18884    0.27420    0.81562   1.00
H2       0.12745    0.32754    0.86179   1.00
H2       0.11749    0.34338    0.83631   1.00
H2       0.10480    0.26269    0.84335   1.00
H2       0.28818    0.21156    0.87711   1.00
H2       0.23271    0.14234    0.86147   1.00
H2       0.30000    0.21587    0.85068   1.00
H2       0.12622    0.13618    0.87133   1.00
H2       0.17102    0.19710    0.89041   1.00
H2       0.11701    0.20832    0.87340   1.00
C4       0.35272    0.19654    0.28190   1.00
C4       0.29486    0.16765    0.29510   1.00
C3       0.38141    0.26293    0.27344   1.00
C3       0.25623    0.19968    0.29967   1.00
C3       0.38339    0.15691    0.27650   1.00
C3       0.27403    0.10322    0.30438   1.00
C2       0.46767    0.25002    0.25453   1.00
C2       0.17755    0.10517    0.32158   1.00
C3       0.43705    0.28883    0.26005   1.00
C3       0.19957    0.16963    0.31270   1.00
C3       0.44029    0.18445    0.26326   1.00
C3       0.21506    0.07249    0.31677   1.00
H1       0.36288    0.29451    0.27683   1.00
H1       0.26784    0.24557    0.29358   1.00
C5       0.35721    0.09016    0.28443   1.00
C5       0.31168    0.06946    0.30113   1.00
H1       0.45532    0.33700    0.25429   1.00
H1       0.17392    0.19542    0.31560   1.00
H1       0.46293    0.15616    0.25996   1.00
H1       0.19829    0.02444    0.32225   1.00
O3       0.37931    0.04809    0.27663   1.00
O3       0.30088    0.01451    0.31295   1.00
Si1      0.33664    -0.00489   0.25835   1.00
Si1      0.34045    0.02882    0.33464   1.00
C6       0.39592    -0.03198   0.25321   1.00
C6       0.26103    -0.07131   0.26896   1.00
C6       0.32485    0.03528    0.23703   1.00
C6       0.39314    0.11437    0.34239   1.00
C6       0.27354    -0.01337   0.35208   1.00
C6       0.38752    -0.01387   0.33410   1.00
C6       0.47222    0.02600    0.25117   1.00
H2       0.39377    -0.05936   0.26707   1.00
C6       0.38392    -0.08280   0.23539   1.00
H2       0.27558    -0.07016   0.28480   1.00
C6       0.19621    -0.06346   0.26934   1.00
C6       0.23505    -0.14603   0.26160   1.00
H2       0.37610    0.07854    0.23463   1.00
C6       0.30399    -0.00561   0.21661   1.00
C6       0.27582    0.06549    0.23860   1.00
C6       0.45257    0.16322    0.32802   1.00
C6       0.35977    0.15611    0.35036   1.00
H2       0.41809    0.10871    0.35582   1.00
H2       0.24892    0.01752    0.35232   1.00
C6       0.21620    -0.08673   0.34594   1.00
C6       0.29309    -0.01807   0.37453   1.00
H2       0.34996    -0.06667   0.33769   1.00
C6       0.41752    -0.01728   0.31313   1.00
C6       0.44663    0.00783    0.34984   1.00
H2       0.48933    0.05862    0.26460   1.00
H2       0.47953    0.05819    0.23798   1.00
H2       0.50606    0.00484    0.24956   1.00
H2       0.40464    -0.11573   0.23942   1.00
H2       0.33031    -0.11564   0.23178   1.00
H2       0.40968    -0.05642   0.22145   1.00
H2       0.15821    -0.09986   0.27991   1.00
H2       0.20780    -0.01305   0.27441   1.00
H2       0.17237    -0.07302   0.25440   1.00
H2       0.27399    -0.16052   0.26353   1.00
H2       0.19093    -0.18275   0.27042   1.00
H2       0.21967    -0.15226   0.24568   1.00
H2       0.25864    -0.05569   0.21857   1.00
H2       0.29320    0.02119    0.20465   1.00
H2       0.34510    -0.01220   0.21069   1.00
H2       0.22306    0.02752    0.23515   1.00
H2       0.27581    0.08610    0.25343   1.00
H2       0.29120    0.10715    0.22773   1.00
H2       0.43498    0.18432    0.31618   1.00
H2       0.49202    0.20634    0.33655   1.00
H2       0.47711    0.13787    0.32078   1.00
H2       0.39830    0.20411    0.35719   1.00
H2       0.33556    0.16919    0.33830   1.00
H2       0.32192    0.12888    0.36214   1.00
H2       0.17184    -0.10387   0.35585   1.00
H2       0.19850    -0.08777   0.33045   1.00
H2       0.23338    -0.12387   0.34701   1.00
H2       0.33166    0.03154    0.38035   1.00
H2       0.24848    -0.03620   0.38440   1.00
H2       0.31218    -0.05363   0.37602   1.00
H2       0.45434    0.03317    0.30743   1.00
H2       0.44242    -0.04793   0.31385   1.00
H2       0.37675    -0.04124   0.30206   1.00
H2       0.46468    -0.02885   0.35005   1.00
H2       0.49015    0.05779    0.34619   1.00
H2       0.43001    0.00984    0.36522   1.00
C4       0.83972    0.64560    0.28254   1.00
C4       0.86956    0.70333    0.29578   1.00
C3       0.84507    0.58637    0.28557   1.00
C3       0.91283    0.71019    0.31230   1.00
C3       0.80324    0.64704    0.26506   1.00
C3       0.85563    0.75751    0.29254   1.00
C2       0.78080    0.53239    0.25450   1.00
C2       0.92919    0.82239    0.32161   1.00
C3       0.81678    0.53147    0.27189   1.00
C3       0.94133    0.76777    0.32497   1.00
C3       0.77398    0.59059    0.25165   1.00
C3       0.88719    0.81638    0.30495   1.00
H1       0.86948    0.58128    0.29784   1.00
H1       0.92527    0.67376    0.31552   1.00
C5       0.79598    0.70470    0.26115   1.00
C5       0.81084    0.75303    0.27683   1.00
H1       0.82271    0.49020    0.27479   1.00
H1       0.97176    0.76967    0.33679   1.00
H1       0.74635    0.59155    0.23948   1.00
H1       0.88019    0.85656    0.30163   1.00
O3       0.77094    0.71084    0.24270   1.00
O3       0.78613    0.79779    0.27592   1.00
Si1      0.82363    0.75326    0.22433   1.00
Si1      0.71868    0.78115    0.28918   1.00
C6       0.76183    0.73150    0.20512   1.00
C6       0.86286    0.84059    0.23048   1.00
C6       0.88041    0.72359    0.21847   1.00
C6       0.68213    0.70789    0.30480   1.00
C6       0.74708    0.85426    0.30429   1.00
C6       0.65734    0.77810    0.27212   1.00
C6       0.70646    0.65405    0.20362   1.00
H2       0.73448    0.75709    0.21024   1.00
C6       0.78333    0.75554    0.18264   1.00
H2       0.82511    0.84185    0.24049   1.00
C6       0.93091    0.87330    0.24286   1.00
C6       0.87525    0.89280    0.21316   1.00
H2       0.84617    0.66847    0.21759   1.00
C6       0.91808    0.74539    0.19753   1.00
C6       0.93807    0.73545    0.23397   1.00
C6       0.65907    0.63725    0.29464   1.00
C6       0.71828    0.70845    0.32512   1.00
H2       0.63508    0.70551    0.30985   1.00
H2       0.78207    0.85099    0.31499   1.00
C6       0.79005    0.92433    0.29323   1.00
C6       0.69255    0.86022    0.31730   1.00
H2       0.67270    0.83157    0.26969   1.00
C6       0.65653    0.74946    0.25055   1.00
C6       0.58121    0.74235    0.27926   1.00
H2       0.68016    0.63455    0.21805   1.00
H2       0.72917    0.62323    0.19920   1.00
H2       0.66734    0.64569    0.19245   1.00
H2       0.74535    0.76491    0.17539   1.00
H2       0.83230    0.80226    0.18152   1.00
H2       0.78642    0.71703    0.17345   1.00
H2       0.94190    0.92226    0.24932   1.00
H2       0.92844    0.84152    0.25558   1.00
H2       0.97399    0.88265    0.23325   1.00
H2       0.82793    0.88005    0.20530   1.00
H2       0.89495    0.94431    0.21919   1.00
H2       0.91226    0.89483    0.20215   1.00
H2       0.94468    0.80072    0.19568   1.00
H2       0.95560    0.72871    0.19583   1.00
H2       0.88275    0.72190    0.18500   1.00
H2       0.98422    0.78468    0.23175   1.00
H2       0.92313    0.73337    0.24968   1.00
H2       0.95231    0.69620    0.23204   1.00
H2       0.70144    0.62774    0.29291   1.00
H2       0.62071    0.59596    0.30398   1.00
H2       0.63629    0.63293    0.27979   1.00
H2       0.68500    0.66383    0.33434   1.00
H2       0.76504    0.70709    0.32258   1.00
H2       0.73040    0.75293    0.33442   1.00
H2       0.81489    0.96563    0.30429   1.00
H2       0.83052    0.92502    0.28402   1.00
H2       0.75861    0.93619    0.28339   1.00
H2       0.66126    0.81403    0.32608   1.00
H2       0.71741    0.90219    0.32816   1.00
H2       0.65907    0.87038    0.30782   1.00
H2       0.64424    0.69638    0.25100   1.00
H2       0.61991    0.75304    0.24059   1.00
H2       0.70634    0.77906    0.24356   1.00
H2       0.55031    0.75290    0.26873   1.00
H2       0.55893    0.68704    0.28009   1.00
H2       0.57617    0.76056    0.29411   1.00
C4       0.80568    0.16003    0.28253   1.00
C4       0.83362    0.13022    0.29576   1.00
C3       0.73983    0.15210    0.28506   1.00
C3       0.79627    0.08455    0.31172   1.00
C3       0.84492    0.19922    0.26557   1.00
C3       0.90277    0.14673    0.29309   1.00
C2       0.75150    0.21913    0.25452   1.00
C2       0.89331    0.07088    0.32159   1.00
C3       0.71329    0.18048    0.27139   1.00
C3       0.82545    0.05617    0.32440   1.00
C3       0.81773    0.22850    0.25217   1.00
C3       0.93029    0.11531    0.30549   1.00
H1       0.70930    0.12566    0.29696   1.00
H1       0.74665    0.07021    0.31451   1.00
C5       0.91116    0.20915    0.26217   1.00
C5       0.94395    0.19395    0.27798   1.00
H1       0.66515    0.17263    0.27391   1.00
H1       0.79618    0.02391    0.33581   1.00
H1       0.84720    0.25806    0.24040   1.00
H1       0.97842    0.12427    0.30255   1.00
O3       0.94408    0.23698    0.24412   1.00
O3       1.01382    0.22080    0.27773   1.00
Si1      0.93769    0.18707    0.22535   1.00
Si1      1.06149    0.28725    0.29178   1.00
C6       0.97836    0.25137    0.20684   1.00
C6       0.98737    0.14961    0.23158   1.00
C6       0.85251    0.12894    0.21851   1.00
C6       1.02098    0.31995    0.30737   1.00
C6       1.10628    0.25925    0.30701   1.00
C6       1.12049    0.35151    0.27555   1.00
C6       0.95402    0.30506    0.20555   1.00
H2       1.03062    0.27951    0.21252   1.00
C6       0.98433    0.23299    0.18425   1.00
H2       1.02450    0.18688    0.24210   1.00
C6       0.95250    0.08015    0.24325   1.00
C6       1.03034    0.14092    0.21447   1.00
H2       0.83011    0.16187    0.21771   1.00
C6       0.84018    0.09386    0.19723   1.00
C6       0.80626    0.06892    0.23329   1.00
C6       0.97290    0.34203    0.29703   1.00
C6       0.98378    0.28084    0.32719   1.00
H2       1.06411    0.36713    0.31304   1.00
H2       1.06740    0.22229    0.31720   1.00
C6       1.13672    0.21937    0.29587   1.00
C6       1.16431    0.31340    0.32080   1.00
H2       1.16012    0.33810    0.27329   1.00
C6       1.09464    0.35381    0.25381   1.00
C6       1.15794    0.42680    0.28347   1.00
H2       0.95831    0.32942    0.22020   1.00
H2       0.90092    0.28137    0.20061   1.00
H2       0.98517    0.34584    0.19486   1.00
H2       1.03194    0.27280    0.17760   1.00
H2       0.98398    0.18502    0.18280   1.00
H2       0.94318    0.22953    0.17476   1.00
H2       0.99079    0.06998    0.24990   1.00
H2       0.92112    0.08003    0.25577   1.00
H2       0.92089    0.03780    0.23312   1.00
H2       1.06466    0.18949    0.20717   1.00
H2       1.06273    0.12204    0.22060   1.00
H2       0.99738    0.10463    0.20298   1.00
H2       0.87059    0.06902    0.19541   1.00
H2       0.78662    0.05530    0.19489   1.00
H2       0.85236    0.13040    0.18502   1.00
H2       0.81135    0.02403    0.23079   1.00
H2       0.81698    0.08220    0.24918   1.00
H2       0.75259    0.05325    0.23089   1.00
H2       0.92188    0.29881    0.29465   1.00
H2       0.96743    0.37847    0.30660   1.00
H2       0.99256    0.36678    0.28247   1.00
H2       0.96995    0.31200    0.33654   1.00
H2       0.93684    0.23354    0.32399   1.00
H2       1.01607    0.26904    0.33663   1.00
H2       1.15309    0.19430    0.30688   1.00
H2       1.09880    0.17931    0.28611   1.00
H2       1.18074    0.25291    0.28655   1.00
H2       1.14698    0.34253    0.32967   1.00
H2       1.18138    0.28837    0.33161   1.00
H2       1.20856    0.34892    0.31185   1.00
H2       1.05263    0.36434    0.25405   1.00
H2       1.13534    0.39234    0.24438   1.00
H2       1.07672    0.30504    0.24635   1.00
H2       1.20018    0.45984    0.27344   1.00
H2       1.12342    0.44737    0.28421   1.00
H2       1.17970    0.43086    0.29850   1.00
C4       0.80695    0.65154    0.78031   1.00
C4       0.83458    0.70785    0.79409   1.00
C3       0.74984    0.63412    0.76764   1.00
C3       0.80420    0.74849    0.79791   1.00
C3       0.83707    0.60929    0.77924   1.00
C3       0.89611    0.72515    0.80469   1.00
C2       0.75204    0.53483    0.75359   1.00
C2       0.89277    0.81995    0.82252   1.00
C3       0.72286    0.57717    0.75473   1.00
C3       0.83281    0.80340    0.81159   1.00
C3       0.80988    0.55281    0.76583   1.00
C3       0.92249    0.77883    0.81905   1.00
H1       0.72630    0.66244    0.76737   1.00
H1       0.76017    0.73915    0.79097   1.00
C5       0.89431    0.62390    0.79149   1.00
C5       0.93069    0.68850    0.80106   1.00
H1       0.68117    0.56679    0.74603   1.00
H1       0.80893    0.83137    0.81362   1.00
H1       0.83317    0.52409    0.76481   1.00
H1       0.96410    0.78777    0.82746   1.00
O3       0.91603    0.57704    0.79294   1.00
O3       0.99644    0.71245    0.80797   1.00
Si1      0.88825    0.52144    0.81138   1.00
Si1      1.06009    0.76773    0.79422   1.00
C6       0.92334    0.47189    0.80261   1.00
C6       0.92861    0.56535    0.83385   1.00
C6       0.79842    0.47280    0.81265   1.00
C6       1.04161    0.79664    0.77147   1.00
C6       1.10408    0.83684    0.81083   1.00
C6       1.11267    0.73269    0.78917   1.00
C6       0.91148    0.45170    0.77960   1.00
H2       0.97803    0.50727    0.80406   1.00
C6       0.90973    0.40549    0.81409   1.00
H2       0.97515    0.60882    0.82800   1.00
C6       0.89297    0.59634    0.84687   1.00
C6       0.95277    0.52979    0.84948   1.00
H2       0.78463    0.45741    0.79685   1.00
C6       0.76660    0.40518    0.82529   1.00
C6       0.75678    0.50793    0.81942   1.00
C6       0.99693    0.74230    0.75519   1.00
C6       1.01522    0.84869    0.77246   1.00
H2       1.09196    0.82607    0.76457   1.00
H2       1.07013    0.85772    0.81246   1.00
C6       1.11545    0.81874    0.83288   1.00
C6       1.17423    0.89691    0.80352   1.00
H2       1.14308    0.74301    0.80294   1.00
C6       1.07586    0.65376    0.78649   1.00
C6       1.16494    0.76359    0.77129   1.00
H2       0.92977    0.49654    0.76988   1.00
H2       0.85740    0.41777    0.77636   1.00
H2       0.93910    0.42572    0.77505   1.00
H2       0.95423    0.39887    0.81285   1.00
H2       0.89932    0.40649    0.83014   1.00
H2       0.86682    0.35962    0.80767   1.00
H2       0.92887    0.63375    0.85766   1.00
H2       0.87411    0.62314    0.83759   1.00
H2       0.85054    0.55692    0.85557   1.00
H2       0.98693    0.51480    0.84246   1.00
H2       0.98153    0.56424    0.86192   1.00
H2       0.90939    0.48482    0.85612   1.00
H2       0.78712    0.41459    0.84069   1.00
H2       0.71106    0.38102    0.82639   1.00
H2       0.77587    0.36735    0.81814   1.00
H2       0.75098    0.50743    0.83586   1.00
H2       0.77940    0.56054    0.81458   1.00
H2       0.70545    0.48079    0.81294   1.00
H2       0.94270    0.71958    0.75842   1.00
H2       1.00558    0.76583    0.74019   1.00
H2       1.00888    0.70145    0.75405   1.00
H2       1.01543    0.86883    0.75736   1.00
H2       0.96320    0.82552    0.77811   1.00
H2       1.04748    0.89267    0.78195   1.00
H2       1.13240    0.86287    0.84288   1.00
H2       1.06822    0.77771    0.83934   1.00
H2       1.15383    0.80309    0.83338   1.00
H2       1.17070    0.91441    0.78839   1.00
H2       1.19167    0.94069    0.81370   1.00
H2       1.21345    0.88228    0.80335   1.00
H2       1.04146    0.63647    0.77350   1.00
H2       1.11222    0.63580    0.78461   1.00
H2       1.04594    0.62897    0.79992   1.00
H2       1.20119    0.74503    0.77168   1.00
H2       1.13930    0.74965    0.75657   1.00
H2       1.19484    0.81903    0.77215   1.00
C4       0.35046    0.16361    0.78108   1.00
C4       0.29292    0.13361    0.79439   1.00
C3       0.35547    0.20408    0.76400   1.00
C3       0.23218    0.13588    0.79093   1.00
C3       0.40596    0.15197    0.78471   1.00
C3       0.29566    0.09943    0.81225   1.00
C2       0.46706    0.21966    0.75430   1.00
C2       0.17816    0.07035    0.82181   1.00
C3       0.41196    0.23103    0.75091   1.00
C3       0.17661    0.10569    0.80435   1.00
C3       0.46307    0.18067    0.77154   1.00
C3       0.23801    0.06684    0.82512   1.00
H1       0.31833    0.21537    0.76062   1.00
H1       0.22636    0.15915    0.77849   1.00
C5       0.40419    0.11198    0.80153   1.00
C5       0.35557    0.09737    0.81711   1.00
H1       0.41253    0.25951    0.73872   1.00
H1       0.13424    0.10945    0.80116   1.00
H1       0.50333    0.17346    0.77466   1.00
H1       0.23918    0.03889    0.83713   1.00
O3       0.45196    0.09147    0.80307   1.00
O3       0.36439    0.07681    0.83606   1.00
Si1      0.43488    0.01736    0.79409   1.00
Si1      0.39466    0.13273    0.85437   1.00
C6       0.51708    0.02808    0.79729   1.00
C6       0.37554    -0.04552   0.81063   1.00
C6       0.41077    0.00603    0.76829   1.00
C6       0.41199    0.21655    0.84925   1.00
C6       0.33138    0.09603    0.87313   1.00
C6       0.46847    0.13427    0.86355   1.00
C6       0.57790    0.09750    0.78962   1.00
H2       0.52214    0.02952    0.81379   1.00
C6       0.53381    -0.02789   0.78993   1.00
H2       0.38562    -0.01736   0.82484   1.00
C6       0.29778    -0.07550   0.80630   1.00
C6       0.38350    -0.10877   0.81561   1.00
H2       0.45000    0.05370    0.76152   1.00
C6       0.41375    -0.05258   0.75655   1.00
C6       0.34016    -0.00198   0.76201   1.00
C6       0.46248    0.25664    0.83162   1.00
C6       0.35146    0.23109    0.84734   1.00
H2       0.43802    0.24361    0.86307   1.00
H2       0.28881    0.09977    0.86683   1.00
C6       0.30246    0.01827    0.87733   1.00
C6       0.34739    0.13198    0.89429   1.00
H2       0.44885    0.09029    0.87367   1.00
C6       0.51221    0.12231    0.84759   1.00
C6       0.51984    0.19719    0.87649   1.00
H2       0.57714    0.14093    0.79655   1.00
H2       0.57623    0.10225    0.77316   1.00
H2       0.62698    0.10221    0.79356   1.00
H2       0.57126    -0.02948   0.80005   1.00
H2       0.48930    -0.07872   0.78963   1.00
H2       0.55618    -0.01733   0.77476   1.00
H2       0.26738    -0.10218   0.81964   1.00
H2       0.28560    -0.03588   0.80272   1.00
H2       0.28068    -0.11203   0.79381   1.00
H2       0.43395    -0.09332   0.82173   1.00
H2       0.34692    -0.14109   0.82718   1.00
H2       0.37487    -0.14021   0.80215   1.00
H2       0.38459    -0.10130   0.76440   1.00
H2       0.39347    -0.05887   0.74113   1.00
H2       0.46596    -0.04153   0.75466   1.00
H2       0.29896    -0.05492   0.76276   1.00
H2       0.32493    0.02759    0.77130   1.00
H2       0.34241    0.01506    0.74636   1.00
H2       0.43705    0.24380    0.81693   1.00
H2       0.48417    0.31157    0.83370   1.00
H2       0.50502    0.24712    0.83094   1.00
H2       0.37047    0.28601    0.84706   1.00
H2       0.32230    0.21012    0.83348   1.00
H2       0.31650    0.21092    0.86017   1.00
H2       0.25609    -0.00228   0.88651   1.00
H2       0.28861    -0.01108   0.86324   1.00
H2       0.33896    0.00884    0.88542   1.00
H2       0.36608    0.18652    0.89287   1.00
H2       0.30120    0.11069    0.90358   1.00
H2       0.38518    0.12494    0.90258   1.00
H2       0.53287    0.16201    0.83601   1.00
H2       0.55464    0.12005    0.85468   1.00
H2       0.48105    0.07382    0.84001   1.00
H2       0.55745    0.18739    0.88381   1.00
H2       0.54761    0.24275    0.86710   1.00
H2       0.49413    0.20857    0.88855   1.00
C4       0.83604    0.18702    0.78128   1.00
C4       0.86597    0.15931    0.79456   1.00
C3       0.78786    0.14855    0.76598   1.00
C3       0.85550    0.09227    0.79266   1.00
C3       0.85578    0.25735    0.78306   1.00
C3       0.90874    0.20035    0.81072   1.00
C2       0.78041    0.24764    0.75437   1.00
C2       0.92958    0.10755    0.82174   1.00
C3       0.76108    0.17807    0.75281   1.00
C3       0.88590    0.06684    0.80599   1.00
C3       0.82721    0.28585    0.76988   1.00
C3       0.94120    0.17478    0.82345   1.00
H1       0.77064    0.09791    0.76400   1.00
H1       0.82584    0.06007    0.78147   1.00
C5       0.90371    0.29867    0.79804   1.00
C5       0.91942    0.26684    0.81402   1.00
H1       0.72679    0.14784    0.74194   1.00
H1       0.87603    0.01776    0.80400   1.00
H1       0.84042    0.33589    0.77170   1.00
H1       0.97507    0.20628    0.83412   1.00
O3       0.93107    0.36838    0.79754   1.00
O3       0.94904    0.30198    0.83172   1.00
Si1      1.00321    0.41609    0.78583   1.00
Si1      0.90092    0.28836    0.85159   1.00
C6       1.00241    0.49348    0.78751   1.00
C6       1.06851    0.41819    0.80092   1.00
C6       1.00260    0.39206    0.76032   1.00
C6       0.81334    0.22684    0.84974   1.00
C6       0.93926    0.26281    0.87011   1.00
C6       0.91102    0.36763    0.85900   1.00
C6       0.93378    0.49003    0.78146   1.00
H2       1.00769    0.50337    0.80381   1.00
C6       1.05997    0.56038    0.77738   1.00
H2       1.04558    0.40770    0.81599   1.00
C6       1.08950    0.36292    0.79717   1.00
C6       1.13737    0.48708    0.80293   1.00
H2       0.95463    0.38650    0.75474   1.00
C6       1.05975    0.44542    0.74605   1.00
C6       1.00071    0.32319    0.75542   1.00
C6       0.77044    0.23622    0.83278   1.00
C6       0.79065    0.14915    0.84991   1.00
H2       0.79319    0.23396    0.86399   1.00
H2       0.92821    0.21243    0.86504   1.00
C6       1.01886    0.30621    0.87159   1.00
C6       0.91148    0.25380    0.89228   1.00
H2       0.95860    0.39154    0.86760   1.00
C6       0.92238    0.41889    0.84160   1.00
C6       0.85591    0.36770    0.87334   1.00
H2       0.89092    0.45137    0.79024   1.00
H2       0.92241    0.47796    0.76538   1.00
H2       0.93583    0.53854    0.78440   1.00
H2       1.06965    0.60477    0.78645   1.00
H2       1.10799    0.56081    0.77593   1.00
H2       1.04572    0.56858    0.76225   1.00
H2       1.11902    0.36062    0.80997   1.00
H2       1.04539    0.31207    0.79563   1.00
H2       1.12104    0.37444    0.78361   1.00
H2       1.12918    0.52784    0.80846   1.00
H2       1.17141    0.48289    0.81387   1.00
H2       1.16417    0.50240    0.78842   1.00
H2       1.11035    0.46291    0.75242   1.00
H2       1.05823    0.42447    0.73097   1.00
H2       1.05333    0.48924    0.74342   1.00
H2       1.05170    0.32943    0.75485   1.00
H2       0.97162    0.28309    0.76629   1.00
H2       0.97724    0.30411    0.74058   1.00
H2       0.77546    0.21620    0.81826   1.00
H2       0.71626    0.20870    0.83671   1.00
H2       0.78489    0.28944    0.83068   1.00
H2       0.73529    0.11798    0.85157   1.00
H2       0.80407    0.13309    0.83594   1.00
H2       0.81266    0.13584    0.86260   1.00
H2       1.03861    0.27997    0.88091   1.00
H2       1.04266    0.31390    0.85667   1.00
H2       1.03585    0.35616    0.87834   1.00
H2       0.85605    0.22223    0.89279   1.00
H2       0.93206    0.22846    0.90167   1.00
H2       0.92619    0.30294    0.89930   1.00
H2       0.87885    0.39953    0.83135   1.00
H2       0.93217    0.46803    0.84753   1.00
H2       0.96670    0.42853    0.83273   1.00
H2       0.87312    0.41888    0.87928   1.00
H2       0.80786    0.35113    0.86534   1.00
H2       0.84569    0.33450    0.88641   1.00
C4       -0.01725   0.47070    0.38556   1.00
C4       0.03919    0.49921    0.37183   1.00
C3       -0.06310   0.39960    0.38758   1.00
C3       0.05175    0.46002    0.35747   1.00
C3       -0.02965   0.51535    0.39782   1.00
C3       0.08618    0.57082    0.37236   1.00
C2       -0.13216   0.41724    0.41295   1.00
C2       0.15362    0.56089    0.34426   1.00
C3       -0.11920   0.37358    0.40080   1.00
C3       0.10773    0.48988    0.34419   1.00
C3       -0.08579   0.48802    0.41135   1.00
C3       0.14059    0.60030    0.35827   1.00
H1       -0.05695   0.36463    0.37955   1.00
H1       0.02037    0.40870    0.35614   1.00
C5       0.01428    0.58697    0.39654   1.00
C5       0.07838    0.61276    0.38681   1.00
H1       -0.15092   0.32172    0.40151   1.00
H1       0.11459    0.45894    0.33424   1.00
H1       -0.09294   0.52056    0.42045   1.00
H1       0.17121    0.65214    0.35798   1.00
O3       -0.00406   0.63007    0.40575   1.00
O3       0.12996    0.67890    0.39030   1.00
Si1      -0.04464   0.66021    0.39280   1.00
Si1      0.19057    0.69209    0.40620   1.00
C6       -0.06291   0.69855    0.41333   1.00
C6       0.01443    0.72208    0.37598   1.00
C6       -0.12014   0.59608    0.38136   1.00
C6       0.18884    0.62053    0.41757   1.00
C6       0.26475    0.73628    0.39149   1.00
C6       0.19214    0.74813    0.42500   1.00
C6       -0.09280   0.65331    0.43278   1.00
H2       -0.01219   0.73926    0.41769   1.00
C6       -0.10662   0.73409    0.41024   1.00
H2       0.06272    0.73818    0.38372   1.00
C6       0.02260    0.69869    0.35434   1.00
C6       0.01135    0.78883    0.37244   1.00
H2       -0.14448   0.56021    0.39386   1.00
C6       -0.17321   0.61668    0.37404   1.00
C6       -0.11534   0.55373    0.36319   1.00
C6       0.12392    0.57017    0.42989   1.00
C6       0.20932    0.57525    0.40476   1.00
H2       0.22958    0.64421    0.42879   1.00
H2       0.26185    0.69783    0.38092   1.00
C6       0.26949    0.79520    0.37789   1.00
C6       0.33479    0.76556    0.40266   1.00
H2       0.22060    0.79843    0.41799   1.00
C6       0.12199    0.74052    0.43090   1.00
C6       0.22949    0.75290    0.44544   1.00
H2       -0.05966   0.63448    0.43821   1.00
H2       -0.14315   0.60930    0.42982   1.00
H2       -0.09773   0.68240    0.44524   1.00
H2       -0.08913   0.77749    0.42055   1.00
H2       -0.10349   0.75307    0.39491   1.00
H2       -0.16052   0.69998    0.41362   1.00
H2       0.06969    0.73758    0.34718   1.00
H2       0.02581    0.65234    0.35483   1.00
H2       -0.01966   0.69011    0.34447   1.00
H2       0.01553    0.81515    0.38669   1.00
H2       0.05375    0.82508    0.36297   1.00
H2       -0.03594   0.77787    0.36484   1.00
H2       -0.14952   0.66081    0.36395   1.00
H2       -0.21596   0.57518    0.36591   1.00
H2       -0.19615   0.62825    0.38678   1.00
H2       -0.11066   0.57851    0.34861   1.00
H2       -0.07272   0.54481    0.36436   1.00
H2       -0.16152   0.50361    0.36251   1.00
H2       0.08376    0.53322    0.42005   1.00
H2       0.13607    0.54121    0.44071   1.00
H2       0.10327    0.59659    0.43858   1.00
H2       0.21504    0.53939    0.41454   1.00
H2       0.17115    0.54505    0.39342   1.00
H2       0.25815    0.60549    0.39711   1.00
H2       0.31098    0.81156    0.36690   1.00
H2       0.22270    0.77855    0.36918   1.00
H2       0.27898    0.83965    0.38683   1.00
H2       0.33692    0.72713    0.41211   1.00
H2       0.37637    0.78286    0.39165   1.00
H2       0.34502    0.80917    0.41217   1.00
H2       0.08745    0.69069    0.43745   1.00
H2       0.12785    0.77961    0.44172   1.00
H2       0.09760    0.74660    0.41751   1.00
H2       0.23601    0.79632    0.45446   1.00
H2       0.20067    0.70698    0.45461   1.00
H2       0.28031    0.76028    0.44291   1.00
C4       0.48803    1.01748    0.38547   1.00
C4       0.46015    0.96101    0.37175   1.00
C3       0.46557    1.06577    0.38657   1.00
C3       0.41151    0.95072    0.35654   1.00
C3       0.54215    1.02733    0.39869   1.00
C3       0.48154    0.91160    0.37320   1.00
C2       0.54934    1.13222    0.41293   1.00
C2       0.40735    0.84632    0.34428   1.00
C3       0.49560    1.12179    0.39983   1.00
C3       0.38534    0.89463    0.34330   1.00
C3       0.57090    1.08345    0.41223   1.00
C3       0.45673    0.85705    0.35915   1.00
H1       0.42657    1.06153    0.37782   1.00
H1       0.39398    0.98389    0.35454   1.00
C5       0.56699    0.98089    0.39836   1.00
C5       0.52797    0.91712    0.38851   1.00
H1       0.47756    1.15532    0.39985   1.00
H1       0.34983    0.88948    0.33271   1.00
H1       0.60839    1.08879    0.42201   1.00
H1       0.47581    0.82458    0.35956   1.00
O3       0.62617    0.99658    0.40857   1.00
O3       0.53888    0.86354    0.39275   1.00
Si1      0.69908    1.03446    0.39662   1.00
Si1      0.48708    0.80395    0.40828   1.00
C6       0.75175    1.05039    0.41803   1.00
C6       0.70142    0.97370    0.38043   1.00
C6       0.71590    1.11118    0.38471   1.00
C6       0.41749    0.80937    0.41828   1.00
C6       0.45643    0.72940    0.39371   1.00
C6       0.53693    0.79966    0.42811   1.00
C6       0.73528    1.08191    0.43688   1.00
H2       0.73868    0.99896    0.42266   1.00
C6       0.83154    1.09109    0.41606   1.00
H2       0.66638    0.92591    0.38799   1.00
C6       0.67378    0.96683    0.35829   1.00
C6       0.77002    0.97326    0.37820   1.00
H2       0.70395    1.13677    0.39674   1.00
C6       0.79143    1.16174    0.37832   1.00
C6       0.67274    1.10858    0.36570   1.00
C6       0.43305    0.87522    0.43025   1.00
C6       0.35457    0.79169    0.40442   1.00
H2       0.39700    0.76857    0.42954   1.00
H2       0.42373    0.73414    0.38245   1.00
C6       0.51102    0.72170    0.38122   1.00
C6       0.41139    0.65979    0.40474   1.00
H2       0.55779    0.76934    0.42180   1.00
C6       0.60041    0.86836    0.43455   1.00
C6       0.50004    0.76316    0.44825   1.00
H2       0.68218    1.05065    0.44161   1.00
H2       0.74454    1.13316    0.43358   1.00
H2       0.76660    1.08528    0.44993   1.00
H2       0.85416    1.07190    0.42702   1.00
H2       0.84924    1.08699    0.40109   1.00
H2       0.85304    1.14532    0.41931   1.00
H2       0.66452    0.91897    0.35142   1.00
H2       0.62539    0.96609    0.35785   1.00
H2       0.71031    1.00836    0.34869   1.00
H2       0.78903    0.96791    0.39290   1.00
H2       0.76334    0.93008    0.36903   1.00
H2       0.80899    1.01980    0.37087   1.00
H2       0.81167    1.13636    0.36886   1.00
H2       0.79618    1.20544    0.36982   1.00
H2       0.82412    1.18354    0.39149   1.00
H2       0.69437    1.10268    0.35157   1.00
H2       0.62025    1.06756    0.36628   1.00
H2       0.67143    1.15610    0.36451   1.00
H2       0.43983    0.91614    0.42011   1.00
H2       0.39074    0.86493    0.44038   1.00
H2       0.47847    0.89400    0.43964   1.00
H2       0.31230    0.78801    0.41344   1.00
H2       0.36613    0.83033    0.39289   1.00
H2       0.33519    0.74257    0.39687   1.00
H2       0.48620    0.68041    0.37015   1.00
H2       0.54413    0.76804    0.37267   1.00
H2       0.54307    0.71023    0.39091   1.00
H2       0.37034    0.65974    0.41342   1.00
H2       0.38738    0.61837    0.39367   1.00
H2       0.44176    0.64765    0.41497   1.00
H2       0.58631    0.90457    0.44047   1.00
H2       0.63067    0.86071    0.44605   1.00
H2       0.63343    0.89171    0.42155   1.00
H2       0.53412    0.75464    0.45802   1.00
H2       0.48346    0.79362    0.45681   1.00
H2       0.45559    0.71330    0.44536   1.00
C4       0.52946    0.51197    0.38547   1.00
C4       0.50087    0.53986    0.37175   1.00
C3       0.60023    0.53454    0.38661   1.00
C3       0.53925    0.58861    0.35657   1.00
C3       0.48517    0.45775    0.39866   1.00
C3       0.43004    0.51835    0.37317   1.00
C2       0.58289    0.45066    0.41293   1.00
C2       0.43898    0.59265    0.34428   1.00
C3       0.62621    0.50450    0.39987   1.00
C3       0.50933    0.61478    0.34333   1.00
C3       0.51253    0.42899    0.41220   1.00
C3       0.40030    0.54316    0.35912   1.00
H1       0.63500    0.57362    0.37788   1.00
H1       0.58998    0.60622    0.35459   1.00
C5       0.41388    0.43281    0.39830   1.00
C5       0.38908    0.47179    0.38845   1.00
H1       0.67780    0.52262    0.39991   1.00
H1       0.53971    0.65037    0.33276   1.00
H1       0.48036    0.39142    0.42196   1.00
H1       0.34874    0.52400    0.35950   1.00
O3       0.37039    0.37354    0.40847   1.00
O3       0.32453    0.46076    0.39266   1.00
Si1      0.33553    0.30070    0.39648   1.00
Si1      0.31655    0.51241    0.40821   1.00
C6       0.29872    0.24788    0.41787   1.00
C6       0.27247    0.29834    0.38027   1.00
C6       0.39558    0.28407    0.38459   1.00
C6       0.39144    0.58201    0.41826   1.00
C6       0.27264    0.54303    0.39364   1.00
C6       0.26233    0.46239    0.42801   1.00
C6       0.34662    0.26432    0.43673   1.00
H2       0.26027    0.26084    0.42249   1.00
C6       0.25976    0.16811    0.41586   1.00
H2       0.25960    0.33328    0.38784   1.00
C6       0.29333    0.32612    0.35815   1.00
C6       0.20351    0.22969    0.37800   1.00
H2       0.43306    0.29601    0.39663   1.00
C6       0.37076    0.20860    0.37817   1.00
C6       0.43621    0.32738    0.36561   1.00
C6       0.44173    0.56648    0.43024   1.00
C6       0.43668    0.64503    0.40443   1.00
H2       0.37101    0.60238    0.42952   1.00
H2       0.31012    0.57583    0.38240   1.00
C6       0.21046    0.48845    0.38111   1.00
C6       0.24790    0.58792    0.40467   1.00
H2       0.21118    0.44149    0.42167   1.00
C6       0.26764    0.39894    0.43442   1.00
C6       0.26254    0.49912    0.44816   1.00
H2       0.36836    0.31739    0.44149   1.00
H2       0.38868    0.25517    0.43344   1.00
H2       0.31862    0.23290    0.44977   1.00
H2       0.21789    0.14537    0.42679   1.00
H2       0.23806    0.15047    0.40087   1.00
H2       0.29254    0.14667    0.41911   1.00
H2       0.25472    0.33534    0.35127   1.00
H2       0.34095    0.37456    0.35775   1.00
H2       0.29846    0.28969    0.34854   1.00
H2       0.17908    0.21057    0.39268   1.00
H2       0.16701    0.23635    0.36881   1.00
H2       0.21120    0.19081    0.37066   1.00
H2       0.32519    0.18835    0.36868   1.00
H2       0.40980    0.20397    0.36968   1.00
H2       0.35985    0.17584    0.39132   1.00
H2       0.40878    0.30580    0.35146   1.00
H2       0.44759    0.37984    0.36621   1.00
H2       0.48509    0.32878    0.36444   1.00
H2       0.47598    0.55983    0.42012   1.00
H2       0.47365    0.60876    0.44040   1.00
H2       0.41510    0.52101    0.43961   1.00
H2       0.47519    0.68728    0.41348   1.00
H2       0.46388    0.63360    0.39291   1.00
H2       0.40693    0.66439    0.39688   1.00
H2       0.19400    0.51328    0.37004   1.00
H2       0.22381    0.45544    0.37255   1.00
H2       0.16690    0.45629    0.39077   1.00
H2       0.28881    0.62896    0.41338   1.00
H2       0.23049    0.61194    0.39361   1.00
H2       0.20534    0.55744    0.41488   1.00
H2       0.31794    0.41308    0.44037   1.00
H2       0.22968    0.36857    0.44590   1.00
H2       0.25809    0.36600    0.42141   1.00
H2       0.21991    0.46495    0.45790   1.00
H2       0.30955    0.51573    0.45674   1.00
H2       0.25707    0.54355    0.44528   1.00
C4       0.18906    0.34791    0.21989   1.00
C4       0.16055    0.29147    0.20616   1.00
C3       0.15396    0.35249    0.23713   1.00
C3       0.09207    0.23706    0.20723   1.00
C3       0.25597    0.40366    0.21616   1.00
C3       0.20236    0.28856    0.19043   1.00
C2       0.24892    0.46530    0.24636   1.00
C2       0.10627    0.17992    0.17753   1.00
C3       0.18287    0.40970    0.24994   1.00
C3       0.06583    0.18249    0.19343   1.00
C3       0.28473    0.46036    0.22948   1.00
C3       0.17410    0.23462    0.17616   1.00
H1       0.10646    0.31428    0.24092   1.00
H1       0.05912    0.23569    0.21798   1.00
C5       0.29384    0.40230    0.19919   1.00
C5       0.27193    0.33971    0.18890   1.00
H1       0.15488    0.41038    0.26209   1.00
H1       0.01610    0.14427    0.19505   1.00
H1       0.33350    0.49912    0.22693   1.00
H1       0.20343    0.23555    0.16424   1.00
O3       0.35315    0.46044    0.19372   1.00
O3       0.31637    0.33111    0.17654   1.00
Si1      0.35090    0.51186    0.17677   1.00
Si1      0.35271    0.28974    0.18534   1.00
C6       0.43614    0.57816    0.17959   1.00
C6       0.33780    0.47175    0.15296   1.00
C6       0.29297    0.53992    0.18283   1.00
C6       0.33107    0.25525    0.21007   1.00
C6       0.32876    0.22343    0.16773   1.00
C6       0.44150    0.34447    0.18338   1.00
C6       0.46111    0.60017    0.20194   1.00
H2       0.46472    0.55437    0.17402   1.00
C6       0.46412    0.64656    0.16740   1.00
H2       0.35802    0.43757    0.15550   1.00
C6       0.26287    0.42535    0.14542   1.00
C6       0.37744    0.51618    0.13417   1.00
H2       0.30534    0.55512    0.19869   1.00
C6       0.30144    0.60429    0.17134   1.00
C6       0.21417    0.48803    0.18202   1.00
C6       0.34217    0.30491    0.22801   1.00
C6       0.26035    0.18968    0.21389   1.00
H2       0.36757    0.23791    0.21267   1.00
H2       0.27433    0.19023    0.17048   1.00
C6       0.33481    0.24395    0.14482   1.00
C6       0.36219    0.17777    0.16991   1.00
H2       0.45280    0.33995    0.16755   1.00
C6       0.46799    0.42196    0.18657   1.00
C6       0.48911    0.32747    0.19632   1.00
H2       0.45375    0.55685    0.21113   1.00
H2       0.43370    0.62276    0.20922   1.00
H2       0.51559    0.63758    0.20243   1.00
H2       0.51799    0.66688    0.16377   1.00
H2       0.43728    0.64038    0.15319   1.00
H2       0.46113    0.68603    0.17609   1.00
H2       0.26111    0.39270    0.13293   1.00
H2       0.22996    0.39135    0.15726   1.00
H2       0.24112    0.45584    0.13989   1.00
H2       0.43239    0.54359    0.13677   1.00
H2       0.36890    0.48455    0.12073   1.00
H2       0.36106    0.55284    0.13049   1.00
H2       0.30143    0.59774    0.15493   1.00
H2       0.26060    0.61504    0.17501   1.00
H2       0.34828    0.64993    0.17571   1.00
H2       0.19307    0.48478    0.16691   1.00
H2       0.20064    0.43668    0.18640   1.00
H2       0.18726    0.50428    0.19238   1.00
H2       0.29958    0.31415    0.22958   1.00
H2       0.34652    0.28319    0.24237   1.00
H2       0.38867    0.35390    0.22626   1.00
H2       0.25853    0.16932    0.22907   1.00
H2       0.21823    0.19974    0.21291   1.00
H2       0.25066    0.14884    0.20329   1.00
H2       0.30821    0.19848    0.13530   1.00
H2       0.31134    0.27514    0.14186   1.00
H2       0.38778    0.27232    0.13980   1.00
H2       0.35851    0.15927    0.18540   1.00
H2       0.33622    0.13281    0.16015   1.00
H2       0.41585    0.20534    0.16548   1.00
H2       0.45730    0.43297    0.20180   1.00
H2       0.52286    0.45262    0.18393   1.00
H2       0.44346    0.43917    0.17584   1.00
H2       0.54223    0.35848    0.19150   1.00
H2       0.48666    0.33750    0.21242   1.00
H2       0.47576    0.27433    0.19464   1.00
C4       0.64556    0.83890    0.21744   1.00
C4       0.70319    0.86884    0.20416   1.00
C3       0.58243    0.83509    0.21293   1.00
C3       0.70554    0.90341    0.18594   1.00
C3       0.65110    0.81204    0.23648   1.00
C3       0.76205    0.86417    0.20918   1.00
C2       0.53252    0.78061    0.24554   1.00
C2       0.82226    0.92938    0.17835   1.00
C3       0.52758    0.80711    0.22663   1.00
C3       0.76317    0.93230    0.17329   1.00
C3       0.59475    0.78287    0.24993   1.00
C3       0.82065    0.89616    0.19667   1.00
H1       0.57437    0.85231    0.19953   1.00
H1       0.66562    0.90898    0.18139   1.00
C5       0.71280    0.81423    0.24193   1.00
C5       0.76243    0.82820    0.22672   1.00
H1       0.48333    0.80618    0.22260   1.00
H1       0.76174    0.95616    0.16021   1.00
H1       0.59884    0.76209    0.26329   1.00
H1       0.86386    0.89612    0.20114   1.00
O3       0.72187    0.79889    0.26150   1.00
O3       0.81273    0.81148    0.22972   1.00
Si1      0.75964    0.85995    0.27815   1.00
Si1      0.80387    0.74206    0.21937   1.00
C6       0.74378    0.80739    0.29959   1.00
C6       0.84719    0.90505    0.27210   1.00
C6       0.72112    0.91078    0.28070   1.00
C6       0.73144    0.69298    0.20402   1.00
C6       0.87798    0.77193    0.20463   1.00
C6       0.80777    0.69150    0.23905   1.00
C6       0.66880    0.74690    0.30200   1.00
H2       0.77433    0.78348    0.29633   1.00
C6       0.76589    0.83886    0.32138   1.00
H2       0.85346    0.86657    0.26396   1.00
C6       0.87365    0.96737    0.25737   1.00
C6       0.90032    0.92976    0.28980   1.00
H2       0.66712    0.87243    0.28198   1.00
C6       0.73891    0.95629    0.30016   1.00
C6       0.72694    0.95965    0.26291   1.00
C6       0.65942    0.66647    0.21365   1.00
C6       0.72813    0.71871    0.18222   1.00
H2       0.73489    0.64732    0.20115   1.00
H2       0.87049    0.79976    0.19233   1.00
C6       0.94636    0.82479    0.21509   1.00
C6       0.89138    0.71742    0.19440   1.00
H2       0.86227    0.71347    0.24189   1.00
C6       0.77703    0.69525    0.25984   1.00
C6       0.77962    0.61393    0.23474   1.00
H2       0.65185    0.71464    0.28850   1.00
H2       0.63332    0.76558    0.30467   1.00
H2       0.66450    0.71395    0.31471   1.00
H2       0.78029    0.80775    0.33053   1.00
H2       0.80914    0.89048    0.32122   1.00
H2       0.72459    0.84025    0.32952   1.00
H2       0.92418    0.98136    0.25151   1.00
H2       0.84074    0.95619    0.24421   1.00
H2       0.87793    1.01199    0.26510   1.00
H2       0.89249    0.88743    0.29951   1.00
H2       0.95244    0.95227    0.28400   1.00
H2       0.89758    0.96837    0.29904   1.00
H2       0.79400    0.98866    0.30193   1.00
H2       0.71661    0.98944    0.29975   1.00
H2       0.71813    0.92542    0.31371   1.00
H2       0.77316    1.00942    0.26403   1.00
H2       0.72702    0.93964    0.24800   1.00
H2       0.68367    0.96849    0.26333   1.00
H2       0.64409    0.70502    0.21320   1.00
H2       0.62082    0.62221    0.20530   1.00
H2       0.65727    0.65052    0.22934   1.00
H2       0.68538    0.67876    0.17368   1.00
H2       0.72083    0.76267    0.18255   1.00
H2       0.77386    0.73209    0.17339   1.00
H2       0.98720    0.84883    0.20385   1.00
H2       0.94183    0.86573    0.22235   1.00
H2       0.96250    0.80102    0.22655   1.00
H2       0.84671    0.67927    0.18616   1.00
H2       0.93292    0.74164    0.18338   1.00
H2       0.90599    0.69141    0.20556   1.00
H2       0.72250    0.67692    0.25884   1.00
H2       0.78507    0.66569    0.27150   1.00
H2       0.80193    0.74769    0.26509   1.00
H2       0.79430    0.59075    0.24684   1.00
H2       0.72400    0.58594    0.23378   1.00
H2       0.79989    0.60598    0.22066   1.00
C4       0.16004    0.80568    0.21747   1.00
C4       0.13023    0.83362    0.20424   1.00
C3       0.15211    0.73983    0.21494   1.00
C3       0.08455    0.79627    0.18828   1.00
C3       0.19921    0.84491    0.23443   1.00
C3       0.14672    0.90277    0.20691   1.00
C2       0.21913    0.75150    0.24548   1.00
C2       0.07088    0.89331    0.17841   1.00
C3       0.18049    0.71329    0.22861   1.00
C3       0.05618    0.82545    0.17559   1.00
C3       0.22850    0.81773    0.24783   1.00
C3       0.11530    0.93028    0.19452   1.00
H1       0.12568    0.70931    0.20304   1.00
H1       0.07022    0.74665    0.18548   1.00
C5       0.20913    0.91115    0.23784   1.00
C5       0.19393    0.94394    0.22202   1.00
H1       0.17264    0.66516    0.22608   1.00
H1       0.02392    0.79619    0.16419   1.00
H1       0.25805    0.84720    0.25961   1.00
H1       0.12426    0.97841    0.19746   1.00
O3       0.23696    0.94407    0.25588   1.00
O3       0.22078    1.01381    0.22228   1.00
Si1      0.18703    0.93766    0.27466   1.00
Si1      0.28723    1.06149    0.20823   1.00
C6       0.25132    0.97833    0.29316   1.00
C6       0.14957    0.98734    0.26842   1.00
C6       0.12890    0.85248    0.28149   1.00
C6       0.31994    1.02100    0.19264   1.00
C6       0.25923    1.10628    0.19300   1.00
C6       0.35148    1.12050    0.22446   1.00
C6       0.30502    0.95400    0.29446   1.00
H2       0.27947    1.03059    0.28749   1.00
C6       0.23293    0.98428    0.31575   1.00
H2       0.18684    1.02448    0.25790   1.00
C6       0.08011    0.95246    0.25675   1.00
C6       0.14086    1.03029    0.28553   1.00
H2       0.16184    0.83008    0.28230   1.00
C6       0.09382    0.84013    0.30277   1.00
C6       0.06889    0.80623    0.26670   1.00
C6       0.34203    0.97291    0.20298   1.00
C6       0.28085    0.98380    0.17282   1.00
H2       0.36712    1.06414    0.18697   1.00
H2       0.22228    1.06741    0.18281   1.00
C6       0.21934    1.13671    0.20414   1.00
C6       0.31338    1.16432    0.17921   1.00
H2       0.33807    1.16011    0.22672   1.00
C6       0.35378    1.09463    0.24620   1.00
C6       0.42678    1.15795    0.21654   1.00
H2       0.32939    0.95830    0.27981   1.00
H2       0.28133    0.90090    0.29940   1.00
H2       0.34580    0.98515    0.30515   1.00
H2       0.27274    1.03190    0.32241   1.00
H2       0.18496    0.98393    0.31721   1.00
H2       0.22947    0.94314    0.32524   1.00
H2       0.06994    0.99075    0.25011   1.00
H2       0.08000    0.92109    0.24423   1.00
H2       0.03776    0.92084    0.26688   1.00
H2       0.18943    1.06462    0.29284   1.00
H2       0.12198    1.06268    0.27941   1.00
H2       0.10457    0.99733    0.29703   1.00
H2       0.06897    0.87054    0.30459   1.00
H2       0.05526    0.78657    0.30511   1.00
H2       0.13035    0.85231    0.31498   1.00
H2       0.02400    0.81132    0.26921   1.00
H2       0.08219    0.81695    0.25082   1.00
H2       0.05323    0.75256    0.26910   1.00
H2       0.29881    0.92190    0.20535   1.00
H2       0.37847    0.96745    0.19341   1.00
H2       0.36677    0.99257    0.21754   1.00
H2       0.31201    0.96998    0.16347   1.00
H2       0.23354    0.93685    0.17601   1.00
H2       0.26904    1.01609    0.16338   1.00
H2       0.19427    1.15308    0.19313   1.00
H2       0.17928    1.09879    0.21389   1.00
H2       0.25287    1.18073    0.21346   1.00
H2       0.34252    1.14700    0.17034   1.00
H2       0.28835    1.18139    0.16840   1.00
H2       0.34889    1.20857    0.18816   1.00
H2       0.36432    1.05263    0.24596   1.00
H2       0.39230    1.13533    0.25564   1.00
H2       0.30500    1.07671    0.25366   1.00
H2       0.45981    1.20019    0.22657   1.00
H2       0.44735    1.12344    0.21580   1.00
H2       0.43084    1.17972    0.20151   1.00
C4       1.01478    0.52161    0.61353   1.00
C4       0.95842    0.49334    0.62729   1.00
C3       1.02532    0.48278    0.59855   1.00
C3       0.91052    0.42253    0.62868   1.00
C3       1.06427    0.59241    0.61490   1.00
C3       0.94873    0.53784    0.64046   1.00
C2       1.13187    0.58186    0.58694   1.00
C2       0.84667    0.44001    0.65585   1.00
C3       1.08242    0.51194    0.58569   1.00
C3       0.85581    0.39662    0.64242   1.00
C3       1.12085    0.62113    0.60153   1.00
C3       0.89497    0.51041    0.65480   1.00
H1       0.99168    0.43222    0.59649   1.00
H1       0.91421    0.38764    0.61983   1.00
C5       1.05675    0.63413    0.62954   1.00
C5       0.99298    0.60935    0.63939   1.00
H1       1.08761    0.48123    0.57524   1.00
H1       0.82242    0.34501    0.64263   1.00
H1       1.15492    0.67237    0.60231   1.00
H1       0.89131    0.54247    0.66498   1.00
O3       1.10984    0.69918    0.63309   1.00
O3       0.97694    0.65384    0.64896   1.00
Si1      1.16441    0.71259    0.65118   1.00
Si1      0.92785    0.67652    0.63729   1.00
C6       1.22264    0.79865    0.64533   1.00
C6       1.12287    0.70529    0.67444   1.00
C6       1.20295    0.66166    0.64904   1.00
C6       0.89503    0.64055    0.61323   1.00
C6       0.86018    0.65260    0.65439   1.00
C6       0.97309    0.76618    0.63568   1.00
C6       1.24312    0.81460    0.62242   1.00
H2       1.19296    0.82342    0.64869   1.00
C6       1.29102    0.83990    0.65748   1.00
H2       1.08359    0.71725    0.67001   1.00
C6       1.08418    0.63371    0.68487   1.00
C6       1.16382    0.75641    0.69189   1.00
H2       1.21781    0.66806    0.63307   1.00
C6       1.26991    0.68430    0.66147   1.00
C6       1.15918    0.58272    0.65291   1.00
C6       0.94686    0.65013    0.59610   1.00
C6       0.83566    0.56477    0.61176   1.00
H2       0.87131    0.66981    0.60825   1.00
H2       0.83287    0.59701    0.65386   1.00
C6       0.88045    0.67150    0.67717   1.00
C6       0.80674    0.67495    0.64931   1.00
H2       0.96614    0.78283    0.65059   1.00
C6       1.05184    0.80056    0.63294   1.00
C6       0.94843    0.80091    0.61989   1.00
H2       1.19834    0.79720    0.61272   1.00
H2       1.27141    0.78995    0.61728   1.00
H2       1.27501    0.86944    0.61986   1.00
H2       1.30467    0.89344    0.65860   1.00
H2       1.28792    0.82102    0.67282   1.00
H2       1.33377    0.83930    0.65000   1.00
H2       1.04928    0.63274    0.69651   1.00
H2       1.05314    0.59340    0.67417   1.00
H2       1.11965    0.62113    0.69225   1.00
H2       1.18505    0.80920    0.68697   1.00
H2       1.13097    0.74988    0.70487   1.00
H2       1.20514    0.74881    0.69730   1.00
H2       1.26243    0.69066    0.67751   1.00
H2       1.28744    0.64730    0.66034   1.00
H2       1.31180    0.73174    0.65569   1.00
H2       1.15834    0.56989    0.66890   1.00
H2       1.10660    0.56066    0.64809   1.00
H2       1.18073    0.55617    0.64455   1.00
H2       0.96297    0.61225    0.59711   1.00
H2       0.92353    0.64431    0.58117   1.00
H2       0.99218    0.70052    0.59647   1.00
H2       0.81471    0.55320    0.59638   1.00
H2       0.85251    0.52859    0.61527   1.00
H2       0.79326    0.55453    0.62177   1.00
H2       0.83562    0.64474    0.68693   1.00
H2       0.91700    0.65632    0.68212   1.00
H2       0.90277    0.72606    0.67991   1.00
H2       0.78805    0.66185    0.63378   1.00
H2       0.76235    0.64895    0.65929   1.00
H2       0.82812    0.72976    0.65141   1.00
H2       1.06561    0.78572    0.61876   1.00
H2       1.07640    0.85613    0.63328   1.00
H2       1.07343    0.78577    0.64529   1.00
H2       0.97354    0.85593    0.62249   1.00
H2       0.95996    0.79300    0.60437   1.00
H2       0.89373    0.78147    0.62101   1.00
C4       0.50717    -0.01469   0.61350   1.00
C4       0.53520    0.04170    0.62725   1.00
C3       0.46105    -0.02304   0.59769   1.00
C3       0.51521    0.09196    0.62774   1.00
C3       0.52509    -0.06648   0.61573   1.00
C3       0.58626    0.04892    0.64135   1.00
C2       0.45009    -0.13190   0.58695   1.00
C2       0.59322    0.15336    0.65584   1.00
C3       0.43297    -0.08019   0.58485   1.00
C3       0.54385    0.14661    0.64151   1.00
C3       0.49720    -0.12311   0.60238   1.00
C3       0.61234    0.10272    0.65566   1.00
H1       0.44668    0.01228    0.59499   1.00
H1       0.47895    0.09011    0.61820   1.00
C5       0.57097    -0.06123   0.63123   1.00
C5       0.61061    0.00217    0.64122   1.00
H1       0.39949    -0.08372   0.57377   1.00
H1       0.52785    0.18176    0.64105   1.00
H1       0.51198    -0.15889   0.60381   1.00
H1       0.64562    0.10470    0.66649   1.00
O3       0.57927    -0.11622   0.63550   1.00
O3       0.66874    0.01555    0.65179   1.00
Si1      0.53353    -0.16992   0.65328   1.00
Si1      0.74291    0.06211    0.64106   1.00
C6       0.55848    -0.23105   0.64852   1.00
C6       0.56524    -0.12899   0.67677   1.00
C6       0.44492    -0.20484   0.64979   1.00
C6       0.74541    0.09576    0.61667   1.00
C6       0.78622    0.12929    0.65834   1.00
C6       0.78398    0.01346    0.64072   1.00
C6       0.55668    -0.25193   0.62575   1.00
H2       0.61240    -0.20341   0.65265   1.00
C6       0.52661    -0.29966   0.66076   1.00
H2       0.61779    -0.09140   0.67296   1.00
C6       0.53362    -0.08761   0.68620   1.00
C6       0.57019    -0.17138   0.69477   1.00
H2       0.43848    -0.21972   0.63382   1.00
C6       0.39637    -0.27111   0.66197   1.00
C6       0.41240    -0.15816   0.65256   1.00
C6       0.70440    0.04474    0.59924   1.00
C6       0.73280    0.15743    0.61432   1.00
H2       0.79894    0.11733    0.61249   1.00
H2       0.76023    0.15872    0.65701   1.00
C6       0.78018    0.10872    0.68124   1.00
C6       0.86347    0.18014    0.65423   1.00
H2       0.80489    0.01946    0.65599   1.00
C6       0.73720    -0.06497   0.63787   1.00
C6       0.84551    0.03560    0.62587   1.00
H2       0.58717    -0.20751   0.61617   1.00
H2       0.50458    -0.27823   0.61986   1.00
H2       0.57772    -0.28580   0.62393   1.00
H2       0.56447    -0.31569   0.66278   1.00
H2       0.50896    -0.29560   0.67575   1.00
H2       0.48345    -0.34128   0.65287   1.00
H2       0.56654    -0.05353   0.69814   1.00
H2       0.52794    -0.05538   0.67504   1.00
H2       0.48390    -0.12145   0.69297   1.00
H2       0.60054    -0.19478   0.69067   1.00
H2       0.59541    -0.13900   0.70793   1.00
H2       0.51963    -0.21118   0.69962   1.00
H2       0.40763    -0.26407   0.67818   1.00
H2       0.34264    -0.28628   0.65995   1.00
H2       0.40050    -0.31435   0.65670   1.00
H2       0.39823    -0.15660   0.66829   1.00
H2       0.44557    -0.10588   0.64784   1.00
H2       0.36587    -0.17783   0.64349   1.00
H2       0.65093    0.03100    0.59936   1.00
H2       0.72502    0.06766    0.58445   1.00
H2       0.70691    -0.00196   0.60013   1.00
H2       0.74547    0.17834    0.59896   1.00
H2       0.67982    0.14291    0.61697   1.00
H2       0.76465    0.19929    0.62455   1.00
H2       0.79851    0.15378    0.69092   1.00
H2       0.72720    0.07394    0.68553   1.00
H2       0.80991    0.08421    0.68481   1.00
H2       0.87236    0.19892    0.63865   1.00
H2       0.88205    0.22473    0.66412   1.00
H2       0.89450    0.15653    0.65716   1.00
H2       0.71095    -0.07768   0.62329   1.00
H2       0.76601    -0.09172   0.63904   1.00
H2       0.69874    -0.08516   0.64971   1.00
H2       0.87285    0.00835    0.62928   1.00
H2       0.82850    0.02470    0.61011   1.00
H2       0.88244    0.08984    0.62715   1.00
C4       0.47814    0.49284    0.61350   1.00
C4       0.50649    0.46481    0.62725   1.00
C3       0.51596    0.53908    0.59772   1.00
C3       0.57677    0.48491    0.62778   1.00
C3       0.40838    0.47480    0.61570   1.00
C3       0.46263    0.41364    0.64131   1.00
C2       0.41800    0.54991    0.58695   1.00
C2       0.56013    0.40678    0.65584   1.00
C3       0.48688    0.56715    0.58488   1.00
C3       0.60279    0.45626    0.64154   1.00
C3       0.37965    0.50269    0.60235   1.00
C3       0.49034    0.38754    0.65563   1.00
H1       0.56568    0.55354    0.59504   1.00
H1       0.61121    0.52126    0.61826   1.00
C5       0.36771    0.42880    0.63117   1.00
C5       0.39151    0.38918    0.64116   1.00
H1       0.51686    0.60072    0.57382   1.00
H1       0.65395    0.47235    0.64111   1.00
H1       0.32905    0.48782    0.60376   1.00
H1       0.45901    0.35418    0.66644   1.00
O3       0.30436    0.42037    0.63542   1.00
O3       0.34676    0.33096    0.65169   1.00
Si1      0.29620    0.46595    0.65321   1.00
Si1      0.31932    0.25687    0.64092   1.00
C6       0.21012    0.44089    0.64841   1.00
C6       0.30535    0.43415    0.67670   1.00
C6       0.34980    0.55459    0.64977   1.00
C6       0.35065    0.25457    0.61654   1.00
C6       0.34320    0.21355    0.65820   1.00
C6       0.22961    0.21568    0.64055   1.00
C6       0.19115    0.44279    0.62564   1.00
H2       0.18389    0.38695    0.65251   1.00
C6       0.17322    0.47260    0.66065   1.00
H2       0.29050    0.38164    0.67286   1.00
C6       0.37831    0.46582    0.68615   1.00
C6       0.25787    0.42901    0.69468   1.00
H2       0.34144    0.56111    0.63379   1.00
C6       0.33191    0.60300    0.66195   1.00
C6       0.42899    0.58721    0.65257   1.00
C6       0.34065    0.29562    0.59913   1.00
C6       0.42499    0.26732    0.61423   1.00
H2       0.31878    0.20106    0.61234   1.00
H2       0.39863    0.23962    0.65690   1.00
C6       0.32851    0.21942    0.68110   1.00
C6       0.31693    0.13634    0.65405   1.00
H2       0.21462    0.19467    0.65580   1.00
C6       0.19785    0.26237    0.63770   1.00
C6       0.19037    0.15422    0.62566   1.00
H2       0.20521    0.41240    0.61605   1.00
H2       0.21691    0.49492    0.61977   1.00
H2       0.13623    0.42167    0.62379   1.00
H2       0.11933    0.43466    0.66264   1.00
H2       0.19482    0.49018    0.67565   1.00
H2       0.17472    0.51576    0.65278   1.00
H2       0.37946    0.43286    0.69809   1.00
H2       0.41630    0.47162    0.67501   1.00
H2       0.39407    0.51549    0.69295   1.00
H2       0.20415    0.39862    0.69054   1.00
H2       0.26502    0.40376    0.70783   1.00
H2       0.26852    0.47952    0.69954   1.00
H2       0.32761    0.59164    0.67816   1.00
H2       0.37041    0.65676    0.65997   1.00
H2       0.28453    0.59882    0.65667   1.00
H2       0.44462    0.60131    0.66832   1.00
H2       0.44821    0.55414    0.64785   1.00
H2       0.45585    0.63380    0.64353   1.00
H2       0.38032    0.34912    0.59927   1.00
H2       0.34307    0.27511    0.58433   1.00
H2       0.29140    0.29302    0.60000   1.00
H2       0.43334    0.25476    0.59886   1.00
H2       0.46337    0.32030    0.61691   1.00
H2       0.43500    0.23545    0.62445   1.00
H2       0.35524    0.20110    0.69078   1.00
H2       0.34660    0.27236    0.68541   1.00
H2       0.27425    0.18960    0.68464   1.00
H2       0.32693    0.12756    0.63847   1.00
H2       0.34295    0.11777    0.66395   1.00
H2       0.26228    0.10522    0.65696   1.00
H2       0.21143    0.28870    0.62313   1.00
H2       0.14229    0.23349    0.63884   1.00
H2       0.21600    0.30076    0.64955   1.00
H2       0.13576    0.12678    0.62904   1.00
H2       0.19654    0.17131    0.60991   1.00
H2       0.20776    0.11734    0.62693   1.00
C4       0.47654    -0.02037   0.11563   1.00
C4       0.50531    0.03751    0.12882   1.00
C3       0.50454    -0.06365   0.11293   1.00
C3       0.56821    0.06147    0.13918   1.00
C3       0.41703    -0.03572   0.10419   1.00
C3       0.46961    0.07381    0.13200   1.00
C2       0.41729    -0.13443   0.08790   1.00
C2       0.56084    0.15589    0.15489   1.00
C3       0.47600    -0.11889   0.09937   1.00
C3       0.59493    0.11864    0.15201   1.00
C3       0.38827    -0.09243   0.09087   1.00
C3       0.49884    0.13301    0.14430   1.00
H1       0.54636    -0.05646   0.12079   1.00
H1       0.59668    0.03836    0.13762   1.00
C5       0.38646    0.00550    0.10619   1.00
C5       0.40530    0.05131    0.12278   1.00
H1       0.49876    -0.14811   0.09793   1.00
H1       0.64034    0.13329    0.15924   1.00
H1       0.34449    -0.10394   0.08319   1.00
H1       0.47480    0.16092    0.14539   1.00
O3       0.33636    -0.00236   0.09277   1.00
O3       0.36399    0.07699    0.12873   1.00
Si1      0.35677    0.04534    0.07251   1.00
Si1      0.31383    0.04296    0.14824   1.00
C6       0.27588    0.00275    0.06078   1.00
C6       0.37766    0.12799    0.08035   1.00
C6       0.41910    0.04130    0.05743   1.00
C6       0.31699    -0.02344   0.16140   1.00
C6       0.33839    0.11260    0.16460   1.00
C6       0.23003    0.01544    0.13998   1.00
C6       0.24032    -0.07701   0.06012   1.00
H2       0.24498    0.01391    0.07110   1.00
C6       0.26438    0.02438    0.03917   1.00
H2       0.34929    0.11764    0.09452   1.00
C6       0.45360    0.17986    0.08583   1.00
C6       0.35371    0.16922    0.06697   1.00
H2       0.39946    -0.01361   0.05648   1.00
C6       0.42717    0.06722    0.03501   1.00
C6       0.49439    0.07402    0.06544   1.00
C6       0.30311    -0.08827   0.14915   1.00
C6       0.37888    -0.00608   0.17568   1.00
H2       0.27411    -0.04089   0.17186   1.00
H2       0.38894    0.12463    0.16980   1.00
C6       0.34840    0.17973    0.15460   1.00
C6       0.29440    0.10057    0.18408   1.00
H2       0.22638    0.06172    0.14014   1.00
C6       0.21282    -0.01137   0.11776   1.00
C6       0.16958    -0.03768   0.15337   1.00
H2       0.23582    -0.09846   0.07526   1.00
H2       0.26881    -0.09370   0.05062   1.00
H2       0.18857    -0.09958   0.05406   1.00
H2       0.21283    0.01672    0.03805   1.00
H2       0.29984    0.07759    0.03572   1.00
H2       0.26902    -0.00617   0.02712   1.00
H2       0.45727    0.22292    0.09441   1.00
H2       0.47609    0.15701    0.09534   1.00
H2       0.48469    0.20038    0.07220   1.00
H2       0.29862    0.14103    0.06466   1.00
H2       0.36525    0.21723    0.07426   1.00
H2       0.37908    0.18164    0.05222   1.00
H2       0.43547    0.11903    0.03443   1.00
H2       0.46998    0.06725    0.02729   1.00
H2       0.38261    0.03402    0.02597   1.00
H2       0.52477    0.12795    0.06152   1.00
H2       0.49784    0.07032    0.08173   1.00
H2       0.51956    0.04831    0.05863   1.00
H2       0.34873    -0.08099   0.14138   1.00
H2       0.28680    -0.13187   0.15932   1.00
H2       0.26294    -0.10269   0.13792   1.00
H2       0.36884    -0.05048   0.18482   1.00
H2       0.42558    0.00889    0.16726   1.00
H2       0.38852    0.03448    0.18639   1.00
H2       0.37454    0.22269    0.16506   1.00
H2       0.37996    0.19271    0.14097   1.00
H2       0.29991    0.17578    0.15045   1.00
H2       0.28644    0.05557    0.19244   1.00
H2       0.32009    0.14401    0.19441   1.00
H2       0.24470    0.09465    0.18038   1.00
H2       0.21723    -0.05667   0.11541   1.00
H2       0.16133    -0.02358   0.11347   1.00
H2       0.24767    0.02771    0.10736   1.00
H2       0.12123    -0.04259   0.14840   1.00
H2       0.16461    -0.08815   0.15246   1.00
H2       0.17600    -0.02237   0.16926   1.00
C4       1.01808    0.48832    0.11475   1.00
C4       0.96151    0.46054    0.12844   1.00
C3       1.07211    0.47372    0.11582   1.00
C3       0.95644    0.42046    0.14562   1.00
C3       1.02191    0.53416    0.09926   1.00
C3       0.90651    0.47300    0.12488   1.00
C2       1.13241    0.54923    0.08714   1.00
C2       0.84613    0.40746    0.15565   1.00
C3       1.12791    0.50360    0.10248   1.00
C3       0.90007    0.39410    0.15876   1.00
C3       1.07799    0.56278    0.08571   1.00
C3       0.85156    0.44842    0.13877   1.00
H1       1.07240    0.44075    0.12628   1.00
H1       0.99375    0.40958    0.14918   1.00
C5       0.96956    0.55089    0.09736   1.00
C5       0.90682    0.51038    0.10760   1.00
H1       1.16572    0.49150    0.10407   1.00
H1       0.89888    0.36496    0.17085   1.00
H1       1.07909    0.59409    0.07433   1.00
H1       0.81476    0.46145    0.13673   1.00
O3       0.97882    0.60337    0.08474   1.00
O3       0.84883    0.51154    0.10168   1.00
Si1      1.00915    0.68019    0.09388   1.00
Si1      0.79292    0.44979    0.08750   1.00
C6       1.01984    0.72229    0.07049   1.00
C6       0.94406    0.68059    0.10845   1.00
C6       1.08781    0.71064    0.10655   1.00
C6       0.80793    0.38261    0.08109   1.00
C6       0.71755    0.41737    0.10175   1.00
C6       0.78253    0.48721    0.06536   1.00
C6       1.05588    0.70393    0.05332   1.00
H2       0.96724    0.70154    0.06539   1.00
C6       1.05256    0.80186    0.06947   1.00
H2       0.89824    0.63898    0.10160   1.00
C6       0.93970    0.66300    0.13155   1.00
C6       0.93468    0.74445    0.10733   1.00
H2       1.11679    0.69835    0.09579   1.00
C6       1.13137    0.78938    0.11034   1.00
C6       1.09006    0.67813    0.12740   1.00
C6       0.87596    0.40102    0.06994   1.00
C6       0.79692    0.32787    0.09746   1.00
H2       0.76773    0.35385    0.07003   1.00
H2       0.72645    0.39240    0.11459   1.00
C6       0.70198    0.47145    0.11131   1.00
C6       0.65003    0.36229    0.09148   1.00
H2       0.74757    0.50480    0.06992   1.00
C6       0.84724    0.55223    0.05743   1.00
C6       0.74928    0.44045    0.04640   1.00
H2       1.02980    0.64906    0.05052   1.00
H2       1.10882    0.72062    0.05727   1.00
H2       1.05580    0.72802    0.03896   1.00
H2       1.02966    0.81575    0.05711   1.00
H2       1.04549    0.82350    0.08335   1.00
H2       1.10727    0.82762    0.06642   1.00
H2       0.89004    0.65078    0.13774   1.00
H2       0.94515    0.61859    0.13431   1.00
H2       0.97865    0.70593    0.14021   1.00
H2       0.92701    0.75541    0.09174   1.00
H2       0.88957    0.73615    0.11578   1.00
H2       0.97869    0.78941    0.11373   1.00
H2       1.10162    0.80831    0.11817   1.00
H2       1.17675    0.80296    0.11949   1.00
H2       1.15062    0.81715    0.09621   1.00
H2       1.08060    0.70280    0.14021   1.00
H2       1.05344    0.62415    0.12847   1.00
H2       1.14048    0.68377    0.12969   1.00
H2       0.91809    0.41674    0.08055   1.00
H2       0.87084    0.35674    0.06173   1.00
H2       0.89026    0.44158    0.05886   1.00
H2       0.79876    0.28497    0.09050   1.00
H2       0.83598    0.34823    0.10917   1.00
H2       0.74722    0.30645    0.10478   1.00
H2       0.66117    0.44747    0.12256   1.00
H2       0.74650    0.51148    0.11920   1.00
H2       0.68600    0.49555    0.09991   1.00
H2       0.65553    0.32112    0.08487   1.00
H2       0.60896    0.33903    0.10268   1.00
H2       0.63356    0.38453    0.07961   1.00
H2       0.88755    0.54179    0.05305   1.00
H2       0.83558    0.57448    0.04441   1.00
H2       0.86730    0.59085    0.06922   1.00
H2       0.73615    0.46677    0.03489   1.00
H2       0.78390    0.42592    0.03940   1.00
H2       0.70216    0.39404    0.05031   1.00
C4       0.51198    0.52945    0.11452   1.00
C4       0.53986    0.50087    0.12824   1.00
C3       0.53469    0.60025    0.11334   1.00
C3       0.58878    0.53930    0.14338   1.00
C3       0.45760    0.48513    0.10138   1.00
C3       0.51819    0.42998    0.12687   1.00
C2       0.45065    0.58288    0.08707   1.00
C2       0.59266    0.43899    0.15572   1.00
C3       0.50465    0.62623    0.10009   1.00
C3       0.61494    0.50938    0.15663   1.00
C3       0.42884    0.51249    0.08785   1.00
C3       0.54300    0.40026    0.14092   1.00
H1       0.57388    0.63503    0.12203   1.00
H1       0.60652    0.59006    0.14533   1.00
C5       0.43251    0.41382    0.10179   1.00
C5       0.47146    0.38897    0.11164   1.00
H1       0.52288    0.67784    0.10000   1.00
H1       0.65065    0.53980    0.16716   1.00
H1       0.39115    0.48030    0.07812   1.00
H1       0.52373    0.34868    0.14057   1.00
O3       0.37312    0.37035    0.09167   1.00
O3       0.46023    0.32433    0.10746   1.00
Si1      0.30038    0.33573    0.10371   1.00
Si1      0.51167    0.31608    0.09189   1.00
C6       0.24736    0.29883    0.08237   1.00
C6       0.29799    0.27273    0.11996   1.00
C6       0.28403    0.39600    0.11558   1.00
C6       0.58129    0.39080    0.08177   1.00
C6       0.54226    0.27215    0.10647   1.00
C6       0.46141    0.26175    0.07214   1.00
C6       0.26375    0.34659    0.06347   1.00
H2       0.26017    0.26026    0.07776   1.00
C6       0.16761    0.26005    0.08444   1.00
H2       0.33280    0.25969    0.11237   1.00
C6       0.32597    0.29372    0.14205   1.00
C6       0.22928    0.20387    0.12229   1.00
H2       0.29595    0.43340    0.10351   1.00
C6       0.20865    0.37140    0.12205   1.00
C6       0.32755    0.43673    0.13452   1.00
C6       0.56582    0.44109    0.06977   1.00
C6       0.64447    0.43605    0.09554   1.00
H2       0.60149    0.37019    0.07051   1.00
H2       0.57521    0.30968    0.11767   1.00
C6       0.48769    0.21013    0.11906   1.00
C6       0.58693    0.24717    0.09543   1.00
H2       0.44046    0.21064    0.07851   1.00
C6       0.39800    0.26718    0.06576   1.00
C6       0.49793    0.26170    0.05198   1.00
H2       0.31676    0.36818    0.05868   1.00
H2       0.25474    0.38876    0.06675   1.00
H2       0.23219    0.31854    0.05047   1.00
H2       0.14470    0.21809    0.07354   1.00
H2       0.15006    0.23849    0.09944   1.00
H2       0.14626    0.29290    0.08118   1.00
H2       0.33514    0.25510    0.14894   1.00
H2       0.37448    0.34128    0.14241   1.00
H2       0.28969    0.29904    0.15168   1.00
H2       0.21000    0.17934    0.10763   1.00
H2       0.23591    0.16739    0.13150   1.00
H2       0.19053    0.21174    0.12965   1.00
H2       0.18839    0.32590    0.13157   1.00
H2       0.20420    0.41058    0.13052   1.00
H2       0.17580    0.36045    0.10892   1.00
H2       0.30604    0.40943    0.14869   1.00
H2       0.37996    0.44799    0.13389   1.00
H2       0.32908    0.48568    0.13567   1.00
H2       0.55934    0.47549    0.07988   1.00
H2       0.60804    0.47287    0.05958   1.00
H2       0.52025    0.41447    0.06044   1.00
H2       0.68668    0.47442    0.08646   1.00
H2       0.63322    0.46341    0.10706   1.00
H2       0.66378    0.40627    0.10310   1.00
H2       0.51254    0.19369    0.13012   1.00
H2       0.45483    0.22366    0.12762   1.00
H2       0.45538    0.16653    0.10943   1.00
H2       0.62795    0.28795    0.08668   1.00
H2       0.61097    0.22976    0.10649   1.00
H2       0.55630    0.20455    0.08526   1.00
H2       0.41221    0.31745    0.05978   1.00
H2       0.36748    0.22916    0.05431   1.00
H2       0.36520    0.25782    0.07879   1.00
H2       0.46361    0.21902    0.04227   1.00
H2       0.51457    0.30865    0.04337   1.00
H2       0.54231    0.25613    0.05484   1.00
C4       0.64646    0.81024    0.71777   1.00
C4       0.70435    0.83893    0.70458   1.00
C3       0.60602    0.84087    0.72154   1.00
C3       0.73123    0.90398    0.69532   1.00
C3       0.62812    0.74799    0.72810   1.00
C3       0.73757    0.80089    0.70025   1.00
C2       0.53223    0.75077    0.74544   1.00
C2       0.82255    0.89404    0.67845   1.00
C3       0.55072    0.81220    0.73507   1.00
C3       0.78831    0.93053    0.68246   1.00
C3       0.57137    0.71922    0.74140   1.00
C3       0.79676    0.82981    0.68795   1.00
H1       0.61542    0.88478    0.71451   1.00
H1       0.71041    0.93416    0.69773   1.00
C5       0.66641    0.71472    0.72500   1.00
C5       0.71204    0.73452    0.70834   1.00
H1       0.52363    0.83690    0.73730   1.00
H1       0.80514    0.97760    0.67604   1.00
H1       0.55767    0.67358    0.74826   1.00
H1       0.82250    0.80381    0.68605   1.00
O3       0.65585    0.66134    0.73741   1.00
O3       0.73465    0.69183    0.70124   1.00
Si1      0.70317    0.67589    0.75755   1.00
Si1      0.69892    0.64587    0.68108   1.00
C6       0.65718    0.59319    0.76800   1.00
C6       0.78461    0.69414    0.74927   1.00
C6       0.70268    0.73726    0.77397   1.00
C6       0.63474    0.65522    0.66874   1.00
C6       0.76799    0.67017    0.66451   1.00
C6       0.66740    0.55998    0.68784   1.00
C6       0.57775    0.56106    0.76879   1.00
H2       0.66632    0.56278    0.75693   1.00
C6       0.67738    0.57624    0.78909   1.00
H2       0.77305    0.66823    0.73463   1.00
C6       0.83929    0.77011    0.74484   1.00
C6       0.82318    0.66484    0.76166   1.00
H2       0.64828    0.72001    0.77510   1.00
C6       0.72815    0.73998    0.79623   1.00
C6       0.73875    0.81409    0.76722   1.00
C6       0.57096    0.64236    0.68138   1.00
C6       0.65518    0.72032    0.65561   1.00
H2       0.61544    0.61415    0.65758   1.00
H2       0.78256    0.72228    0.66026   1.00
C6       0.83365    0.67486    0.67397   1.00
C6       0.75395    0.62930    0.64426   1.00
H2       0.71211    0.55369    0.68711   1.00
C6       0.64027    0.53976    0.70995   1.00
C6       0.61252    0.50342    0.67378   1.00
H2       0.55678    0.56041    0.75382   1.00
H2       0.56310    0.58946    0.77905   1.00
H2       0.55288    0.50815    0.77398   1.00
H2       0.66702    0.52361    0.78920   1.00
H2       0.73100    0.60899    0.79271   1.00
H2       0.64792    0.58049    0.80155   1.00
H2       0.88134    0.77304    0.73588   1.00
H2       0.81844    0.79618    0.73607   1.00
H2       0.86087    0.79834    0.75887   1.00
H2       0.79269    0.60951    0.76310   1.00
H2       0.87048    0.67534    0.75410   1.00
H2       0.83658    0.68746    0.77678   1.00
H2       0.77890    0.74550    0.79642   1.00
H2       0.73056    0.78246    0.80484   1.00
H2       0.69334    0.69449    0.80467   1.00
H2       0.79278    0.84152    0.77118   1.00
H2       0.73546    0.82081    0.75107   1.00
H2       0.71518    0.84008    0.77482   1.00
H2       0.58056    0.68730    0.69003   1.00
H2       0.52779    0.62993    0.67136   1.00
H2       0.55462    0.59993    0.69189   1.00
H2       0.61159    0.71417    0.64676   1.00
H2       0.67230    0.76582    0.66484   1.00
H2       0.69516    0.72990    0.64468   1.00
H2       0.87689    0.70118    0.66361   1.00
H2       0.84794    0.70400    0.68810   1.00
H2       0.82704    0.62460    0.67712   1.00
H2       0.70989    0.62518    0.63625   1.00
H2       0.79764    0.65512    0.63402   1.00
H2       0.74537    0.57801    0.64696   1.00
H2       0.59654    0.54638    0.71289   1.00
H2       0.62548    0.48687    0.71327   1.00
H2       0.68010    0.57141    0.72065   1.00
H2       0.60498    0.45322    0.67777   1.00
H2       0.56325    0.50097    0.67514   1.00
H2       0.62785    0.51205    0.65789   1.00
C4       0.16386    0.35082    0.71879   1.00
C4       0.13390    0.29321    0.70550   1.00
C3       0.20969    0.35898    0.73467   1.00
C3       0.14185    0.23524    0.70791   1.00
C3       0.14659    0.40303    0.71640   1.00
C3       0.09378    0.29297    0.68877   1.00
C2       0.21962    0.46719    0.74565   1.00
C2       0.07039    0.17803    0.67824   1.00
C3       0.23652    0.41534    0.74781   1.00
C3       0.11152    0.17950    0.69456   1.00
C3       0.17520    0.46012    0.72957   1.00
C3       0.06127    0.23506    0.67600   1.00
H1       0.22510    0.32433    0.73711   1.00
H1       0.16955    0.23162    0.71952   1.00
C5       0.10108    0.39802    0.70081   1.00
C5       0.08575    0.35016    0.68495   1.00
H1       0.26904    0.41825    0.75912   1.00
H1       0.11951    0.13924    0.69695   1.00
H1       0.16383    0.49809    0.72732   1.00
H1       0.02920    0.23386    0.66488   1.00
O3       0.07577    0.44213    0.70065   1.00
O3       0.05895    0.35681    0.66682   1.00
Si1      0.00280    0.41995    0.71152   1.00
Si1      0.10970    0.39010    0.64740   1.00
C6       0.00668    0.49951    0.70933   1.00
C6       -0.06183   0.35797    0.69598   1.00
C6       -0.00041   0.39616    0.73718   1.00
C6       0.19631    0.41342    0.65027   1.00
C6       0.07187    0.32642    0.62879   1.00
C6       0.10321    0.46085    0.63938   1.00
C6       0.07569    0.56334    0.71587   1.00
H2       0.00355    0.50434    0.69293   1.00
C6       -0.05057   0.51114    0.71859   1.00
H2       -0.03715   0.36975    0.68114   1.00
C6       -0.08566   0.28114    0.69994   1.00
C6       -0.12910   0.36052    0.69302   1.00
H2       0.04755    0.43759    0.74313   1.00
C6       -0.05821   0.39445    0.75067   1.00
C6       -0.00160   0.32794    0.74255   1.00
C6       0.23836    0.46511    0.66745   1.00
C6       0.21653    0.35660    0.65078   1.00
H2       0.21872    0.44039    0.63612   1.00
H2       0.08066    0.28599    0.63427   1.00
C6       -0.00733   0.29250    0.62646   1.00
C6       0.10235    0.34444    0.60690   1.00
H2       0.05668    0.43848    0.63029   1.00
C6       0.09156    0.50193    0.65634   1.00
C6       0.16094    0.51496    0.62544   1.00
H2       0.11886    0.56602    0.70766   1.00
H2       0.08495    0.56226    0.73210   1.00
H2       0.07573    0.61070    0.71259   1.00
H2       -0.05772   0.54680    0.70916   1.00
H2       -0.09958   0.46447    0.71970   1.00
H2       -0.03750   0.53353    0.73375   1.00
H2       -0.11431   0.24979    0.68696   1.00
H2       -0.04285   0.27265    0.70213   1.00
H2       -0.11889   0.26195    0.71319   1.00
H2       -0.11862   0.41003    0.68727   1.00
H2       -0.16263   0.32282    0.68187   1.00
H2       -0.15747   0.34986    0.70723   1.00
H2       -0.10832   0.36258    0.74384   1.00
H2       -0.05918   0.37465    0.76589   1.00
H2       -0.05036   0.44536    0.75305   1.00
H2       -0.05331   0.28426    0.74272   1.00
H2       0.02776    0.31563    0.73217   1.00
H2       0.01986    0.33158    0.75767   1.00
H2       0.23083    0.43985    0.68206   1.00
H2       0.29291    0.49024    0.66409   1.00
H2       0.22539    0.50511    0.66909   1.00
H2       0.27189    0.37919    0.64972   1.00
H2       0.20068    0.32712    0.66475   1.00
H2       0.19510    0.32142    0.63804   1.00
H2       -0.02733   0.24637    0.61719   1.00
H2       -0.03298   0.27702    0.64115   1.00
H2       -0.02200   0.32664    0.61926   1.00
H2       0.15764    0.36669    0.60698   1.00
H2       0.08155    0.29843    0.59754   1.00
H2       0.09002    0.38001    0.59944   1.00
H2       0.13395    0.52497    0.66702   1.00
H2       0.08410    0.54233    0.65002   1.00
H2       0.04580    0.46829    0.66483   1.00
H2       0.14602    0.55014    0.61904   1.00
H2       0.20829    0.54525    0.63388   1.00
H2       0.17161    0.49114    0.61267   1.00
C4       0.18702    0.83604    0.71872   1.00
C4       0.15931    0.86597    0.70545   1.00
C3       0.14856    0.78788    0.73403   1.00
C3       0.09227    0.85552    0.70734   1.00
C3       0.25734    0.85577    0.71694   1.00
C3       0.20034    0.90872    0.68927   1.00
C2       0.24764    0.78041    0.74563   1.00
C2       0.10755    0.92958    0.67826   1.00
C3       0.17807    0.76110    0.74719   1.00
C3       0.06684    0.88591    0.69401   1.00
C3       0.28585    0.82720    0.73012   1.00
C3       0.17477    0.94118    0.67655   1.00
H1       0.09791    0.77067    0.73601   1.00
H1       0.06008    0.82586    0.71853   1.00
C5       0.29866    0.90368    0.70195   1.00
C5       0.26683    0.91939    0.68598   1.00
H1       0.14785    0.72681    0.75806   1.00
H1       0.01777    0.87605    0.69601   1.00
H1       0.33588    0.84039    0.72830   1.00
H1       0.20627    0.97504    0.66587   1.00
O3       0.36837    0.93103    0.70245   1.00
O3       0.30196    0.94900    0.66827   1.00
Si1      0.41610    1.00318    0.71416   1.00
Si1      0.28832    0.90086    0.64841   1.00
C6       0.49348    1.00236    0.71248   1.00
C6       0.41820    1.06848    0.69907   1.00
C6       0.39209    1.00259    0.73967   1.00
C6       0.22678    0.81328    0.65026   1.00
C6       0.26276    0.93920    0.62989   1.00
C6       0.36758    0.91095    0.64099   1.00
C6       0.49002    0.93373    0.71852   1.00
H2       0.50335    1.00763    0.69617   1.00
C6       0.56039    1.05992    0.72260   1.00
H2       0.40770    1.04553    0.68399   1.00
C6       0.36295    1.08948    0.70281   1.00
C6       0.48709    1.13733    0.69705   1.00
H2       0.38652    0.95462    0.74525   1.00
C6       0.44546    1.05974    0.75393   1.00
C6       0.32323    1.00071    0.74456   1.00
C6       0.23616    0.77039    0.66722   1.00
C6       0.14910    0.79061    0.65009   1.00
H2       0.23389    0.79312    0.63601   1.00
H2       0.21239    0.92817    0.63495   1.00
C6       0.30618    1.01879    0.62840   1.00
C6       0.25374    0.91140    0.60772   1.00
H2       0.39149    0.95852    0.63239   1.00
C6       0.41884    0.92231    0.65839   1.00
C6       0.36763    0.85581    0.62666   1.00
H2       0.45135    0.89087    0.70975   1.00
H2       0.47796    0.92237    0.73461   1.00
H2       0.53853    0.93577    0.71559   1.00
H2       0.60477    1.06958    0.71353   1.00
H2       0.56083    1.10795    0.72404   1.00
H2       0.56860    1.04567    0.73773   1.00
H2       0.36064    1.11899    0.69001   1.00
H2       0.31209    1.04538    0.70435   1.00
H2       0.37448    1.12103    0.71637   1.00
H2       0.52784    1.12913    0.69151   1.00
H2       0.48290    1.17137    0.68610   1.00
H2       0.50243    1.16414    0.71156   1.00
H2       0.46295    1.11034    0.74756   1.00
H2       0.42452    1.05824    0.76901   1.00
H2       0.48927    1.05331    0.75656   1.00
H2       0.32948    1.05171    0.74513   1.00
H2       0.28312    0.97162    0.73371   1.00
H2       0.30415    0.97726    0.75941   1.00
H2       0.21616    0.77543    0.68174   1.00
H2       0.20863    0.71621    0.66330   1.00
H2       0.28939    0.78484    0.66932   1.00
H2       0.11793    0.73525    0.64844   1.00
H2       0.13305    0.80404    0.66406   1.00
H2       0.13579    0.81262    0.63741   1.00
H2       0.27993    1.03855    0.61908   1.00
H2       0.31388    1.04261    0.64332   1.00
H2       0.35612    1.03578    0.62165   1.00
H2       0.22216    0.85597    0.60720   1.00
H2       0.22840    0.93199    0.59832   1.00
H2       0.30287    0.92610    0.60069   1.00
H2       0.39948    0.87878    0.66864   1.00
H2       0.46798    0.93208    0.65246   1.00
H2       0.42850    0.96663    0.66726   1.00
H2       0.41880    0.87301    0.62071   1.00
H2       0.35105    0.80777    0.63466   1.00
H2       0.33442    0.84560    0.61358   1.00
