data_IRMOF10_interpen_symm_ligand4lp_label_l_2.

_audit_creation_method             'generated by an auxiliary program of Tobunporous'

_symmetry_space_group_name_H-M     'P 1'
_symmetry_Int_Tables_number        1
_symmetry_cell_setting             triclinic

_cell_length_a                    22.6523
_cell_length_b                    22.6523
_cell_length_c                    65.9502
_cell_angle_alpha                 90.0000
_cell_angle_beta                  90.0000
_cell_angle_gamma                 120.0000

loop_
_atom_site_label
_atom_site_fract_x
_atom_site_fract_y
_atom_site_fract_z
_atom_site_occupancy
O1       0.00000    -0.00000   0.62500   1.00
Zn1      0.00000    -0.00000   0.59589   1.00
Zn1      0.94848    1.04288    0.63392   1.00
Zn1      0.09439    0.05152    0.63392   1.00
Zn1      -0.04288   0.90561    0.63392   1.00
O2       0.93860    0.02610    0.58587   1.00
O2       0.08750    0.06140    0.58587   1.00
O2       -0.02610   0.91250    0.58587   1.00
O2       0.91305    0.07161    0.61181   1.00
O2       0.00462    0.12022    0.65110   1.00
O2       0.87413    0.98074    0.65071   1.00
O2       0.15856    0.08695    0.61181   1.00
O2       0.10660    0.12587    0.65071   1.00
O2       0.11559    0.99538    0.65110   1.00
O2       -0.07161   0.84144    0.61181   1.00
O2       0.87978    0.88441    0.65110   1.00
O2       0.01926    0.89340    0.65071   1.00
C1       0.91390    0.06020    0.59358   1.00
C1       0.14630    0.08610    0.59358   1.00
C1       -0.06020   0.85370    0.59358   1.00
C1       0.06663    0.14397    0.65673   1.00
C1       0.85603    0.92267    0.65673   1.00
C1       0.07733    0.93337    0.65673   1.00
O1       -0.00000   0.00000    0.87500   1.00
Zn1      -0.00000   0.00000    0.90411   1.00
Zn1      1.04288    0.94848    0.86608   1.00
Zn1      0.05152    0.09439    0.86608   1.00
Zn1      0.90561    -0.04288   0.86608   1.00
O2       0.02610    0.93860    0.91413   1.00
O2       0.06140    0.08750    0.91413   1.00
O2       0.91250    -0.02610   0.91413   1.00
O2       0.07161    0.91305    0.88819   1.00
O2       0.12022    0.00462    0.84890   1.00
O2       0.98074    0.87413    0.84929   1.00
O2       0.08695    0.15856    0.88819   1.00
O2       0.12587    0.10660    0.84929   1.00
O2       0.99538    0.11559    0.84890   1.00
O2       0.84144    -0.07161   0.88819   1.00
O2       0.88441    0.87978    0.84890   1.00
O2       0.89340    0.01926    0.84929   1.00
C1       0.06020    0.91390    0.90642   1.00
C1       0.08610    0.14630    0.90642   1.00
C1       0.85370    -0.06020   0.90642   1.00
C1       0.14397    0.06663    0.84327   1.00
C1       0.92267    0.85603    0.84327   1.00
C1       0.93337    0.07733    0.84327   1.00
O1       0.00000    0.00000    0.37500   1.00
Zn1      0.00000    0.00000    0.40411   1.00
Zn1      0.05152    -0.04288   0.36608   1.00
Zn1      0.90561    0.94848    0.36608   1.00
Zn1      1.04288    0.09439    0.36608   1.00
O2       0.06140    -0.02610   0.41413   1.00
O2       0.91250    0.93860    0.41413   1.00
O2       0.02610    0.08750    0.41413   1.00
O2       0.08695    -0.07161   0.38819   1.00
O2       0.99538    0.87978    0.34890   1.00
O2       0.12587    0.01926    0.34929   1.00
O2       0.84144    0.91305    0.38819   1.00
O2       0.89340    0.87413    0.34929   1.00
O2       0.88441    0.00462    0.34890   1.00
O2       0.07161    0.15856    0.38819   1.00
O2       0.12022    0.11559    0.34890   1.00
O2       0.98074    0.10660    0.34929   1.00
C1       0.08610    -0.06020   0.40642   1.00
C1       0.85370    0.91390    0.40642   1.00
C1       0.06020    0.14630    0.40642   1.00
C1       0.93337    0.85603    0.34327   1.00
C1       0.14397    0.07733    0.34327   1.00
C1       0.92267    0.06663    0.34327   1.00
O1       0.00000    0.00000    0.12500   1.00
Zn1      0.00000    0.00000    0.09589   1.00
Zn1      -0.04288   0.05152    0.13392   1.00
Zn1      0.94848    0.90561    0.13392   1.00
Zn1      0.09439    1.04288    0.13392   1.00
O2       -0.02610   0.06140    0.08587   1.00
O2       0.93860    0.91250    0.08587   1.00
O2       0.08750    0.02610    0.08587   1.00
O2       -0.07161   0.08695    0.11181   1.00
O2       0.87978    0.99538    0.15110   1.00
O2       0.01926    0.12587    0.15071   1.00
O2       0.91305    0.84144    0.11181   1.00
O2       0.87413    0.89340    0.15071   1.00
O2       0.00462    0.88441    0.15110   1.00
O2       0.15856    0.07161    0.11181   1.00
O2       0.11559    0.12022    0.15110   1.00
O2       0.10660    0.98074    0.15071   1.00
C1       -0.06020   0.08610    0.09358   1.00
C1       0.91390    0.85370    0.09358   1.00
C1       0.14630    0.06020    0.09358   1.00
C1       0.85603    0.93337    0.15673   1.00
C1       0.07733    0.14397    0.15673   1.00
C1       0.06663    0.92267    0.15673   1.00
O1       0.66667    0.33333    0.95833   1.00
Zn1      0.66667    0.33333    0.92922   1.00
Zn1      0.61515    0.37621    0.96725   1.00
Zn1      0.76106    0.38485    0.96725   1.00
Zn1      -0.37621   0.23894    0.96725   1.00
O2       0.60527    0.35943    0.91920   1.00
O2       0.75417    0.39473    0.91920   1.00
O2       0.64057    0.24583    0.91920   1.00
O2       0.57972    0.40494    0.94514   1.00
O2       0.67129    0.45355    0.98443   1.00
O2       0.54080    0.31407    0.98404   1.00
O2       0.82523    0.42028    0.94514   1.00
O2       0.77327    0.45920    0.98404   1.00
O2       -0.21774   0.32871    0.98443   1.00
O2       0.59506    0.17477    0.94514   1.00
O2       0.54645    0.21774    0.98443   1.00
O2       -0.31407   0.22673    0.98404   1.00
C1       0.58057    0.39353    0.92691   1.00
C1       0.81297    0.41943    0.92691   1.00
C1       0.60647    0.18703    0.92691   1.00
C1       0.73330    0.47730    0.99006   1.00
C1       0.52270    0.25600    0.99006   1.00
C1       -0.25600   0.26670    0.99006   1.00
O1       0.66667    0.33333    0.20833   1.00
Zn1      0.66667    0.33333    0.23744   1.00
Zn1      0.70954    0.28182    0.19942   1.00
Zn1      0.71818    0.42773    0.19942   1.00
Zn1      0.57227    0.29046    0.19942   1.00
O2       0.69277    0.27193    0.24746   1.00
O2       0.72807    0.42083    0.24746   1.00
O2       0.57917    0.30723    0.24746   1.00
O2       0.73828    0.24638    0.22152   1.00
O2       0.78688    0.33796    0.18224   1.00
O2       0.64740    0.20747    0.18263   1.00
O2       0.75362    0.49189    0.22152   1.00
O2       0.79253    0.43994    0.18263   1.00
O2       0.66204    0.44893    0.18224   1.00
O2       0.50811    0.26172    0.22152   1.00
O2       0.55107    0.21312    0.18224   1.00
O2       0.56006    0.35260    0.18263   1.00
C1       0.72687    0.24723    0.23975   1.00
C1       0.75277    0.47963    0.23975   1.00
C1       0.52037    0.27313    0.23975   1.00
C1       0.81063    0.39997    0.17661   1.00
C1       0.58933    0.18937    0.17661   1.00
C1       0.60003    0.41067    0.17661   1.00
O1       0.66667    0.33333    0.70833   1.00
Zn1      0.66667    0.33333    0.73744   1.00
Zn1      0.71818    0.29046    0.69942   1.00
Zn1      0.57227    0.28182    0.69942   1.00
Zn1      0.70954    0.42773    0.69942   1.00
O2       0.72807    0.30723    0.74746   1.00
O2       0.57917    0.27193    0.74746   1.00
O2       0.69277    0.42083    0.74746   1.00
O2       0.75362    0.26172    0.72152   1.00
O2       0.66204    0.21312    0.68224   1.00
O2       0.79253    0.35260    0.68263   1.00
O2       0.50811    0.24638    0.72152   1.00
O2       0.56006    0.20747    0.68263   1.00
O2       0.55107    0.33796    0.68224   1.00
O2       0.73828    0.49189    0.72152   1.00
O2       0.78688    0.44893    0.68224   1.00
O2       0.64740    0.43994    0.68263   1.00
C1       0.75277    0.27313    0.73975   1.00
C1       0.52037    0.24723    0.73975   1.00
C1       0.72687    0.47963    0.73975   1.00
C1       0.60003    0.18937    0.67661   1.00
C1       0.81063    0.41067    0.67661   1.00
C1       0.58933    0.39997    0.67661   1.00
O1       0.66667    0.33333    0.45833   1.00
Zn1      0.66667    0.33333    0.42922   1.00
Zn1      -0.37621   0.38485    0.46725   1.00
Zn1      0.61515    0.23894    0.46725   1.00
Zn1      0.76106    0.37621    0.46725   1.00
O2       0.64057    0.39473    0.41920   1.00
O2       0.60527    0.24583    0.41920   1.00
O2       0.75417    0.35943    0.41920   1.00
O2       0.59506    0.42028    0.44514   1.00
O2       0.54645    0.32871    0.48443   1.00
O2       -0.31407   0.45920    0.48404   1.00
O2       0.57972    0.17477    0.44514   1.00
O2       0.54080    0.22673    0.48404   1.00
O2       0.67129    0.21774    0.48443   1.00
O2       0.82523    0.40494    0.44514   1.00
O2       -0.21774   0.45355    0.48443   1.00
O2       0.77327    0.31407    0.48404   1.00
C1       0.60647    0.41943    0.42691   1.00
C1       0.58057    0.18703    0.42691   1.00
C1       0.81297    0.39353    0.42691   1.00
C1       0.52270    0.26670    0.49006   1.00
C1       -0.25600   0.47730    0.49006   1.00
C1       0.73330    0.25600    0.49006   1.00
O1       0.33333    0.66667    0.29167   1.00
Zn1      0.33333    0.66667    0.26256   1.00
Zn1      0.28182    0.70954    0.30058   1.00
Zn1      0.42773    0.71818    0.30058   1.00
Zn1      0.29046    0.57227    0.30058   1.00
O2       0.27193    0.69277    0.25254   1.00
O2       0.42083    0.72807    0.25254   1.00
O2       0.30723    0.57917    0.25254   1.00
O2       0.24638    0.73828    0.27848   1.00
O2       0.33796    0.78688    0.31776   1.00
O2       0.20747    0.64740    0.31737   1.00
O2       0.49189    0.75362    0.27848   1.00
O2       0.43994    0.79253    0.31737   1.00
O2       0.44893    0.66204    0.31776   1.00
O2       0.26172    0.50811    0.27848   1.00
O2       0.21312    0.55107    0.31776   1.00
O2       0.35260    0.56006    0.31737   1.00
C1       0.24723    0.72687    0.26025   1.00
C1       0.47963    0.75277    0.26025   1.00
C1       0.27313    0.52037    0.26025   1.00
C1       0.39997    0.81063    0.32339   1.00
C1       0.18937    0.58933    0.32339   1.00
C1       0.41067    0.60003    0.32339   1.00
O1       0.33333    0.66667    0.54167   1.00
Zn1      0.33333    0.66667    0.57078   1.00
Zn1      0.37621    0.61515    0.53275   1.00
Zn1      0.38485    0.76106    0.53275   1.00
Zn1      0.23894    -0.37621   0.53275   1.00
O2       0.35943    0.60527    0.58080   1.00
O2       0.39473    0.75417    0.58080   1.00
O2       0.24583    0.64057    0.58080   1.00
O2       0.40494    0.57972    0.55486   1.00
O2       0.45355    0.67129    0.51557   1.00
O2       0.31407    0.54080    0.51596   1.00
O2       0.42028    0.82523    0.55486   1.00
O2       0.45920    0.77327    0.51596   1.00
O2       0.32871    -0.21774   0.51557   1.00
O2       0.17477    0.59506    0.55486   1.00
O2       0.21774    0.54645    0.51557   1.00
O2       0.22673    -0.31407   0.51596   1.00
C1       0.39353    0.58057    0.57309   1.00
C1       0.41943    0.81297    0.57309   1.00
C1       0.18703    0.60647    0.57309   1.00
C1       0.47730    0.73330    0.50994   1.00
C1       0.25600    0.52270    0.50994   1.00
C1       0.26670    -0.25600   0.50994   1.00
O1       0.33333    0.66667    0.04167   1.00
Zn1      0.33333    0.66667    0.07078   1.00
Zn1      0.38485    -0.37621   0.03275   1.00
Zn1      0.23894    0.61515    0.03275   1.00
Zn1      0.37621    0.76106    0.03275   1.00
O2       0.39473    0.64057    0.08080   1.00
O2       0.24583    0.60527    0.08080   1.00
O2       0.35943    0.75417    0.08080   1.00
O2       0.42028    0.59506    0.05486   1.00
O2       0.32871    0.54645    0.01557   1.00
O2       0.45920    -0.31407   0.01596   1.00
O2       0.17477    0.57972    0.05486   1.00
O2       0.22673    0.54080    0.01596   1.00
O2       0.21774    0.67129    0.01557   1.00
O2       0.40494    0.82523    0.05486   1.00
O2       0.45355    -0.21774   0.01557   1.00
O2       0.31407    0.77327    0.01596   1.00
C1       0.41943    0.60647    0.07309   1.00
C1       0.18703    0.58057    0.07309   1.00
C1       0.39353    0.81297    0.07309   1.00
C1       0.26670    0.52270    0.00994   1.00
C1       0.47730    -0.25600   0.00994   1.00
C1       0.25600    0.73330    0.00994   1.00
O1       0.33333    0.66667    0.79167   1.00
Zn1      0.33333    0.66667    0.76256   1.00
Zn1      0.29046    0.71818    0.80058   1.00
Zn1      0.28182    0.57227    0.80058   1.00
Zn1      0.42773    0.70954    0.80058   1.00
O2       0.30723    0.72807    0.75254   1.00
O2       0.27193    0.57917    0.75254   1.00
O2       0.42083    0.69277    0.75254   1.00
O2       0.26172    0.75362    0.77848   1.00
O2       0.21312    0.66204    0.81776   1.00
O2       0.35260    0.79253    0.81737   1.00
O2       0.24638    0.50811    0.77848   1.00
O2       0.20747    0.56006    0.81737   1.00
O2       0.33796    0.55107    0.81776   1.00
O2       0.49189    0.73828    0.77848   1.00
O2       0.44893    0.78688    0.81776   1.00
O2       0.43994    0.64740    0.81737   1.00
C1       0.27313    0.75277    0.76025   1.00
C1       0.24723    0.52037    0.76025   1.00
C1       0.47963    0.72687    0.76025   1.00
C1       0.18937    0.60003    0.82339   1.00
C1       0.41067    0.81063    0.82339   1.00
C1       0.39997    0.58933    0.82339   1.00
C4       -0.16059   0.64085    0.53473   1.00
C4       -0.13994   0.69183    0.55013   1.00
C3       -0.14115   0.58995    0.53501   1.00
C3       -0.10457   0.69121    0.56793   1.00
C3       -0.20220   0.64002    0.51829   1.00
C3       -0.15488   0.74583    0.54790   1.00
C2       -0.20508   0.53570    0.50414   1.00
C2       -0.09520   0.79675    0.58080   1.00
C3       -0.16292   0.53873    0.52026   1.00
C3       -0.08253   0.74219    0.58277   1.00
C3       -0.22360   0.58677    0.50364   1.00
C3       -0.13122   0.79695    0.56330   1.00
H1       -0.10987   0.58858    0.54584   1.00
H1       -0.09409   0.65333    0.57088   1.00
C5       -0.22104   0.69163    0.51673   1.00
C5       -0.19284   0.74760    0.53073   1.00
H1       -0.14734   0.50333    0.52137   1.00
H1       -0.05703   0.73896    0.59522   1.00
H1       -0.25360   0.58420    0.49181   1.00
H1       -0.14045   0.83640    0.56219   1.00
C6       -0.27095   0.68597    0.50051   1.00
C6       -0.20196   0.80876    0.52747   1.00
H2       -0.31274   0.63342    0.49980   1.00
H2       -0.15363   0.85515    0.53034   1.00
H2       -0.29752   0.71294    0.50476   1.00
H2       -0.21063   0.81491    0.51159   1.00
C6       -0.23683   0.71213    0.47923   1.00
C6       -0.26118   0.80620    0.54046   1.00
H2       -0.20203   0.69292    0.47612   1.00
H2       -0.25856   0.79022    0.55593   1.00
C6       -0.28511   0.69499    0.46047   1.00
C6       -0.26563   0.87289    0.54183   1.00
H2       -0.20446   0.76748    0.48017   1.00
H2       -0.30931   0.76565    0.53433   1.00
C6       -0.32529   0.61729    0.45607   1.00
C6       -0.20382   0.93025    0.55337   1.00
C6       -0.33604   0.72113    0.46337   1.00
C6       -0.27044   0.89915    0.52054   1.00
C6       -0.24085   0.73087    0.44152   1.00
C6       -0.33103   0.85689    0.55381   1.00
H2       -0.29079   0.59704    0.45428   1.00
H2       -0.19835   0.91294    0.56835   1.00
H2       -0.36069   0.58923    0.46829   1.00
H2       -0.15638   0.94701    0.54512   1.00
H2       -0.35514   0.60633    0.44217   1.00
H2       -0.20971   0.97483    0.55547   1.00
H2       -0.36611   0.71331    0.44966   1.00
H2       -0.27842   0.94274    0.52170   1.00
H2       -0.37156   0.69409    0.47568   1.00
H2       -0.22362   0.91557    0.51196   1.00
H2       -0.30912   0.77547    0.46691   1.00
H2       -0.31272   0.85925    0.51193   1.00
H2       -0.20438   0.71362    0.43866   1.00
H2       -0.32989   0.83878    0.56907   1.00
H2       -0.27231   0.72004    0.42796   1.00
H2       -0.33617   0.90214    0.55529   1.00
H2       -0.21223   0.78610    0.44353   1.00
H2       -0.37664   0.81764    0.54619   1.00
C4       0.35623    0.19415    0.53381   1.00
C4       0.30402    0.16359    0.54886   1.00
C3       0.42456    0.24437    0.53867   1.00
C3       0.31795    0.17573    0.56999   1.00
C3       0.34040    0.17442    0.51303   1.00
C3       0.23497    0.11898    0.54281   1.00
C2       0.46261    0.25354    0.50355   1.00
C2       0.19801    0.10449    0.57923   1.00
C3       0.47628    0.27298    0.52405   1.00
C3       0.26662    0.14742    0.58474   1.00
C3       0.39463    0.20450    0.49862   1.00
C3       0.18414    0.09147    0.55829   1.00
H1       0.43916    0.26254    0.55299   1.00
H1       0.36601    0.20506    0.57548   1.00
C5       0.27192    0.12622    0.50709   1.00
C5       0.21822    0.10256    0.52181   1.00
H1       0.52459    0.30876    0.52855   1.00
H1       0.27996    0.15837    0.59973   1.00
H1       0.38548    0.19143    0.48373   1.00
H1       0.13442    0.05992    0.55458   1.00
C6       0.25734    0.10041    0.48545   1.00
C6       0.14421    0.06121    0.51545   1.00
H2       0.29652    0.08905    0.48051   1.00
H2       0.11485    0.08002    0.52349   1.00
H2       0.21162    0.05059    0.48443   1.00
H2       0.13704    0.07095    0.49975   1.00
C6       0.25055    0.15053    0.47050   1.00
C6       0.11333    -0.01746   0.51849   1.00
H2       0.29124    0.20271    0.47348   1.00
H2       0.12880    -0.02706   0.53326   1.00
C6       0.25067    0.13684    0.44723   1.00
C6       0.03408    -0.06375   0.51675   1.00
H2       0.20326    0.15005    0.47417   1.00
H2       0.13697    -0.03491   0.50735   1.00
C6       0.32058    0.14737    0.44009   1.00
C6       -0.00336   -0.04967   0.53415   1.00
C6       0.19382    0.06399    0.44145   1.00
C6       0.00728    -0.05432   0.49608   1.00
C6       0.23727    0.18848    0.43551   1.00
C6       0.01575    -0.13945   0.51844   1.00
H2       0.36197    0.19799    0.44424   1.00
H2       0.01523    -0.05482   0.54896   1.00
H2       0.33139    0.10985    0.44681   1.00
H2       0.00389    0.00154    0.53314   1.00
H2       0.32170    0.14236    0.42366   1.00
H2       -0.05815   -0.08534   0.53362   1.00
H2       0.19119    0.05663    0.42505   1.00
H2       -0.04719   -0.09025   0.49444   1.00
H2       0.20336    0.02561    0.44820   1.00
H2       0.01469    -0.00308   0.49469   1.00
H2       0.14421    0.05475    0.44669   1.00
H2       0.03384    -0.06255   0.48356   1.00
H2       0.27650    0.24087    0.43890   1.00
H2       0.03297    -0.14905   0.53289   1.00
H2       0.23733    0.18124    0.41914   1.00
H2       -0.03924   -0.17385   0.51744   1.00
H2       0.18791    0.18264    0.43960   1.00
H2       0.03961    -0.15294   0.50629   1.00
C4       0.80614    0.15500    0.53171   1.00
C4       0.83413    0.13002    0.54658   1.00
C3       0.83112    0.22595    0.52875   1.00
C3       0.89346    0.17411    0.55803   1.00
C3       0.75098    0.10797    0.51919   1.00
C3       0.80230    0.05834    0.55033   1.00
C2       0.75182    0.20570    0.50096   1.00
C2       0.88884    0.07984    0.57736   1.00
C3       0.80511    0.25067    0.51380   1.00
C3       0.91988    0.14994    0.57303   1.00
C3       0.72619    0.13523    0.50406   1.00
C3       0.83058    0.03584    0.56581   1.00
H1       0.86870    0.26232    0.53750   1.00
H1       0.92011    0.22537    0.55576   1.00
C5       0.72180    0.03589    0.52203   1.00
C5       0.74413    0.01122    0.53869   1.00
H1       0.82552    0.30243    0.51238   1.00
H1       0.96265    0.18440    0.58082   1.00
H1       0.68733    0.10342    0.49478   1.00
H1       0.80910    -0.01469   0.56901   1.00
C6       0.66846    -0.01311   0.50730   1.00
C6       0.70666    -0.06368   0.54426   1.00
H2       0.68434    0.00551    0.49189   1.00
H2       0.70085    -0.06855   0.56069   1.00
H2       0.66707    -0.06177   0.50682   1.00
H2       0.65385    -0.08898   0.53928   1.00
C6       0.59503    -0.02610   0.51197   1.00
C6       0.74148    -0.10338   0.53570   1.00
H2       0.59751    0.02233    0.51539   1.00
H2       0.79657    -0.07325   0.53808   1.00
C6       0.53896    -0.06335   0.49536   1.00
C6       0.71645    -0.17678   0.54414   1.00
H2       0.57762    -0.05573   0.52597   1.00
H2       0.73466    -0.10681   0.51926   1.00
C6       0.55442    -0.01935   0.47593   1.00
C6       0.73427    -0.17537   0.56692   1.00
C6       0.53104    -0.13332   0.48965   1.00
C6       0.63863    -0.22381   0.54120   1.00
C6       0.46965    -0.07612   0.50392   1.00
C6       0.75324    -0.20839   0.53230   1.00
H2       0.56141    0.03086    0.47950   1.00
H2       0.78876    -0.14170   0.56955   1.00
H2       0.60047    -0.01189   0.46841   1.00
H2       0.70674    -0.15758   0.57631   1.00
H2       0.51279    -0.04363   0.46502   1.00
H2       0.72090    -0.22614   0.57229   1.00
H2       0.48861    -0.16096   0.47917   1.00
H2       0.62253    -0.27602   0.54579   1.00
H2       0.57693    -0.12697   0.48227   1.00
H2       0.61013    -0.20644   0.55034   1.00
H2       0.52154    -0.16478   0.50313   1.00
H2       0.62451    -0.22458   0.52534   1.00
H2       0.47227    -0.02813   0.50800   1.00
H2       0.80848    -0.17744   0.53405   1.00
H2       0.42885    -0.10169   0.49279   1.00
H2       0.73774    -0.25965   0.53775   1.00
H2       0.45522    -0.10812   0.51745   1.00
H2       0.74153    -0.21205   0.51613   1.00
C4       0.65161    -0.15353   0.96841   1.00
C4       0.70441    -0.12825   0.95348   1.00
C3       0.61334    -0.22389   0.97369   1.00
C3       0.72745    -0.17018   0.94436   1.00
C3       0.63571    -0.10742   0.97857   1.00
C3       0.73603    -0.05849   0.94727   1.00
C2       0.54710    -0.20422   0.99931   1.00
C2       0.80886    -0.07807   0.92256   1.00
C3       0.56289    -0.24854   0.98873   1.00
C3       0.77782    -0.14607   0.92930   1.00
C3       0.58423    -0.13452   0.99388   1.00
C3       0.78688    -0.03603   0.93180   1.00
H1       0.62021    -0.25998   0.96667   1.00
H1       0.70897    -0.21963   0.94846   1.00
C5       0.67052    -0.03647   0.97330   1.00
C5       0.71701    -0.01309   0.95651   1.00
H1       0.53730    -0.29982   0.99190   1.00
H1       0.79199    -0.17895   0.92326   1.00
H1       0.57182    -0.10327   1.00154   1.00
H1       0.81020    0.01309    0.92689   1.00
C6       0.65837    0.01285    0.98565   1.00
C6       0.74557    0.05853    0.94830   1.00
H2       0.65821    0.00138    1.00171   1.00
H2       0.74391    0.05659    0.93178   1.00
H2       0.70141    0.06451    0.98478   1.00
H2       0.71233    0.07907    0.95163   1.00
C6       0.59188    0.01344    0.97938   1.00
C6       0.81903    0.10938    0.95632   1.00
H2       0.55023    -0.03892   0.97734   1.00
H2       0.85028    0.08506    0.95575   1.00
C6       0.56605    0.05056    0.99386   1.00
C6       0.85952    0.18027    0.94554   1.00
H2       0.60047    0.03690    0.96439   1.00
H2       0.81482    0.11818    0.97242   1.00
C6       0.54221    0.01358    1.01458   1.00
C6       0.87735    0.17292    0.92330   1.00
C6       0.62160    0.12582    0.99748   1.00
C6       0.81947    0.21921    0.94581   1.00
C6       0.50379    0.05008    0.98381   1.00
C6       0.92766    0.22406    0.95706   1.00
H2       0.50374    -0.04002   1.01252   1.00
H2       0.90471    0.14464    0.92256   1.00
H2       0.58449    0.01568    1.02305   1.00
H2       0.83172    0.14617    0.91399   1.00
H2       0.51994    0.03702    1.02401   1.00
H2       0.90956    0.22274    0.91637   1.00
H2       0.60156    0.15255    1.00639   1.00
H2       0.85008    0.27043    0.93957   1.00
H2       0.66474    0.12902    1.00578   1.00
H2       0.77318    0.19285    0.93673   1.00
H2       0.64030    0.15266    0.98310   1.00
H2       0.80503    0.22383    0.96127   1.00
H2       0.46268    -0.00203   0.98111   1.00
H2       0.95831    0.19912    0.95713   1.00
H2       0.48358    0.07511    0.99343   1.00
H2       0.95804    0.27403    0.95000   1.00
H2       0.51773    0.07672    0.96928   1.00
H2       0.91844    0.23224    0.97279   1.00
C4       0.19416    0.35625    0.96618   1.00
C4       0.16361    0.30404    0.95114   1.00
C3       0.24452    0.42453    0.96133   1.00
C3       0.17589    0.31795    0.93000   1.00
C3       0.17430    0.34045    0.98695   1.00
C3       0.11884    0.23502    0.95718   1.00
C2       0.25356    0.46262    0.99644   1.00
C2       0.10449    0.19804    0.92076   1.00
C3       0.27314    0.47626    0.97595   1.00
C3       0.14757    0.26662    0.91526   1.00
C3       0.20439    0.39468    1.00136   1.00
C3       0.09134    0.18419    0.94170   1.00
H1       0.26279    0.43910    0.94702   1.00
H1       0.20534    0.36600    0.92452   1.00
C5       0.12595    0.27201    0.99289   1.00
C5       0.10228    0.21830    0.97817   1.00
H1       0.30902    0.52454    0.97146   1.00
H1       0.15864    0.27994    0.90027   1.00
H1       0.19122    0.38556    1.01626   1.00
H1       0.05967    0.13449    0.94541   1.00
C6       0.10001    0.25749    1.01452   1.00
C6       0.06076    0.14430    0.98454   1.00
H2       0.08873    0.29675    1.01943   1.00
H2       0.07952    0.11485    0.97652   1.00
H2       0.05013    0.21184    1.01552   1.00
H2       0.07037    0.13711    1.00024   1.00
C6       0.14996    0.25057    1.02950   1.00
C6       -0.01788   0.11358    0.98145   1.00
H2       0.20219    0.29118    1.02655   1.00
H2       -0.02734   0.12908    0.96666   1.00
C6       0.13614    0.25074    1.05277   1.00
C6       -0.06432   0.03434    0.98319   1.00
H2       0.14939    0.20322    1.02585   1.00
H2       -0.03531   0.13730    0.99257   1.00
C6       0.14679    0.32071    1.05988   1.00
C6       -0.05024   -0.00318   0.96581   1.00
C6       0.06321    0.19400    1.05851   1.00
C6       -0.05509   0.00749    1.00387   1.00
C6       0.18762    0.23719    1.06453   1.00
C6       -0.13996   0.01618    0.98145   1.00
H2       0.19748    0.36202    1.05575   1.00
H2       -0.05526   0.01544    0.95099   1.00
H2       0.10939    0.33162    1.05313   1.00
H2       0.00092    0.00395    0.96685   1.00
H2       0.14170    0.32185    1.07631   1.00
H2       -0.08601   -0.05795   0.96633   1.00
H2       0.05576    0.19139    1.07491   1.00
H2       -0.09112   -0.04695   1.00551   1.00
H2       0.02494    0.20365    1.05173   1.00
H2       -0.00390   0.01479    1.00529   1.00
H2       0.05389    0.14434    1.05329   1.00
H2       -0.06332   0.03412    1.01637   1.00
H2       0.24006    0.27634    1.06116   1.00
H2       -0.14942   0.03344    0.96698   1.00
H2       0.18029    0.23728    1.08089   1.00
H2       -0.17446   -0.03880   0.98244   1.00
H2       0.18168    0.18779    1.06046   1.00
H2       -0.15344   0.04011    0.99358   1.00
C4       0.15501    0.80614    0.96829   1.00
C4       0.13002    0.83413    0.95342   1.00
C3       0.22596    0.83111    0.97124   1.00
C3       0.17411    0.89345    0.94196   1.00
C3       0.10797    0.75099    0.98081   1.00
C3       0.05835    0.80231    0.94968   1.00
C2       0.20571    0.75182    0.99904   1.00
C2       0.07985    0.88884    0.92264   1.00
C3       0.25067    0.80510    0.98620   1.00
C3       0.14995    0.91987    0.92697   1.00
C3       0.13524    0.72620    0.99594   1.00
C3       0.03584    0.83059    0.93419   1.00
H1       0.26232    0.86868    0.96250   1.00
H1       0.22538    0.92009    0.94423   1.00
C5       0.03590    0.72182    0.97798   1.00
C5       0.01122    0.74415    0.96132   1.00
H1       0.30244    0.82550    0.98761   1.00
H1       0.18441    0.96264    0.91918   1.00
H1       0.10343    0.68735    1.00522   1.00
H1       -0.01469   0.80912    0.93100   1.00
C6       -0.01310   0.66850    0.99271   1.00
C6       -0.06368   0.70669    0.95575   1.00
H2       0.00552    0.68438    1.00812   1.00
H2       -0.06857   0.70088    0.93932   1.00
H2       -0.06176   0.66713    0.99319   1.00
H2       -0.08899   0.65388    0.96074   1.00
C6       -0.02611   0.59506    0.98805   1.00
C6       -0.10336   0.74153    0.96431   1.00
H2       0.02231    0.59753    0.98462   1.00
H2       -0.07323   0.79662    0.96193   1.00
C6       -0.06336   0.53901    1.00466   1.00
C6       -0.17677   0.71651    0.95588   1.00
H2       -0.05575   0.57765    0.97404   1.00
H2       -0.10678   0.73472    0.98076   1.00
C6       -0.01935   0.55447    1.02408   1.00
C6       -0.17537   0.73432    0.93310   1.00
C6       -0.13332   0.53110    1.01037   1.00
C6       -0.22380   0.63870    0.95882   1.00
C6       -0.07615   0.46969    0.99610   1.00
C6       -0.20836   0.75332    0.96771   1.00
H2       0.03085    0.56144    1.02051   1.00
H2       -0.14169   0.78881    0.93046   1.00
H2       -0.01187   0.60052    1.03161   1.00
H2       -0.15759   0.70677    0.92371   1.00
H2       -0.04364   0.51284    1.03500   1.00
H2       -0.22614   0.72096    0.92773   1.00
H2       -0.16097   0.48868    1.02086   1.00
H2       -0.27602   0.62261    0.95423   1.00
H2       -0.12696   0.57700    1.01775   1.00
H2       -0.20645   0.61018    0.94968   1.00
H2       -0.16479   0.52160    0.99689   1.00
H2       -0.22457   0.62459    0.97468   1.00
H2       -0.02817   0.47229    0.99202   1.00
H2       -0.17740   0.80856    0.96596   1.00
H2       -0.10173   0.42889    1.00723   1.00
H2       -0.25962   0.73783    0.96227   1.00
H2       -0.10816   0.45525    0.98257   1.00
H2       -0.21201   0.74162    0.98388   1.00
C4       0.15864    0.35985    0.46502   1.00
C4       0.13470    0.31005    0.44920   1.00
C3       0.22142    0.38113    0.47533   1.00
C3       0.17502    0.28340    0.44115   1.00
C3       0.11889    0.39000    0.47097   1.00
C3       0.06807    0.28546    0.44091   1.00
C2       0.20872    0.46299    0.49633   1.00
C2       0.08510    0.20689    0.41790   1.00
C3       0.24596    0.43135    0.49044   1.00
C3       0.15097    0.23315    0.42605   1.00
C3       0.14588    0.44124    0.48635   1.00
C3       0.04535    0.23400    0.42563   1.00
H1       0.25134    0.36044    0.47239   1.00
H1       0.22363    0.29999    0.44581   1.00
C5       0.05392    0.36860    0.46174   1.00
C5       0.02622    0.31244    0.44781   1.00
H1       0.29175    0.44463    0.49724   1.00
H1       0.18245    0.21584    0.42094   1.00
H1       0.11933    0.46419    0.49089   1.00
H1       -0.00189   0.21490    0.41947   1.00
C6       0.01585    0.40596    0.46663   1.00
C6       -0.04674   0.28087    0.44048   1.00
H2       0.05165    0.46067    0.46656   1.00
H2       -0.07023   0.22552    0.44082   1.00
H2       -0.01880   0.40106    0.45449   1.00
H2       -0.07837   0.28923    0.45117   1.00
C6       -0.02499   0.38223    0.48703   1.00
C6       -0.05312   0.30707    0.41904   1.00
H2       0.00667    0.37748    0.49871   1.00
H2       -0.01438   0.30814    0.40891   1.00
C6       -0.05363   0.42708    0.49589   1.00
C6       -0.12365   0.26739    0.40802   1.00
H2       -0.06766   0.33058    0.48477   1.00
H2       -0.04008   0.36026    0.42065   1.00
C6       0.00449    0.49831    0.50260   1.00
C6       -0.14107   0.19404    0.40220   1.00
C6       -0.10011   0.43604    0.48044   1.00
C6       -0.18201   0.26390    0.42117   1.00
C6       -0.09706   0.39091    0.51494   1.00
C6       -0.11998   0.30564    0.38809   1.00
H2       0.03889    0.49374    0.51327   1.00
H2       -0.10030   0.19469    0.39318   1.00
H2       0.03463    0.52827    0.48970   1.00
H2       -0.14858   0.16289    0.41559   1.00
H2       -0.01591   0.52739    0.51002   1.00
H2       -0.18793   0.16847    0.39330   1.00
H2       -0.12366   0.46319    0.48724   1.00
H2       -0.23003   0.24049    0.41279   1.00
H2       -0.07097   0.46538    0.46731   1.00
H2       -0.18989   0.23345    0.43477   1.00
H2       -0.14066   0.38661    0.47514   1.00
H2       -0.17035   0.31484    0.42583   1.00
H2       -0.06639   0.38395    0.52645   1.00
H2       -0.07992   0.30890    0.37813   1.00
H2       -0.11786   0.42057    0.52177   1.00
H2       -0.16803   0.27957    0.37975   1.00
H2       -0.13984   0.34078    0.51111   1.00
H2       -0.10917   0.35744    0.39122   1.00
C4       0.65065    0.80679    0.46816   1.00
C4       0.70177    0.83720    0.45281   1.00
C3       0.65463    0.76642    0.48410   1.00
C3       0.76374    0.83540    0.45350   1.00
C3       0.59292    0.81650    0.46779   1.00
C3       0.69143    0.87100    0.43602   1.00
C2       0.54900    0.74804    0.49979   1.00
C2       0.80371    0.89575    0.42126   1.00
C3       0.60561    0.73817    0.49950   1.00
C3       0.81308    0.86344    0.43818   1.00
C3       0.54432    0.78718    0.48382   1.00
C3       0.74276    0.89857    0.42068   1.00
H1       0.69295    0.75545    0.48501   1.00
H1       0.77567    0.81424    0.46527   1.00
C5       0.58465    0.85424    0.45166   1.00
C5       0.63136    0.87695    0.43492   1.00
H1       0.61156    0.70979    0.51062   1.00
H1       0.85656    0.86022    0.43954   1.00
H1       0.50284    0.79336    0.48415   1.00
H1       0.73703    0.92258    0.40844   1.00
C6       0.52731    0.87026    0.45261   1.00
C6       0.61767    0.90636    0.41606   1.00
H2       0.52425    0.88654    0.46793   1.00
H2       0.62860    0.88504    0.40272   1.00
H2       0.53897    0.91545    0.44383   1.00
H2       0.56360    0.88828    0.41414   1.00
C6       0.45705    0.80965    0.44539   1.00
C6       0.65771    0.98628    0.41566   1.00
H2       0.44945    0.76198    0.45193   1.00
H2       0.71036    1.00516    0.42047   1.00
C6       0.39170    0.81446    0.44990   1.00
C6       0.65962    1.02204    0.39514   1.00
H2       0.46020    0.80412    0.42903   1.00
H2       0.63561    1.00394    0.42724   1.00
C6       0.37726    0.81148    0.47299   1.00
C6       0.70010    1.00837    0.37862   1.00
C6       0.39734    0.88033    0.44095   1.00
C6       0.58691    0.99905    0.38719   1.00
C6       0.32953    0.75252    0.43988   1.00
C6       0.69635    1.10024    0.39875   1.00
H2       0.37410    0.76606    0.47984   1.00
H2       0.75135    1.02304    0.38390   1.00
H2       0.41708    0.85590    0.48084   1.00
H2       0.67475    0.95470    0.37442   1.00
H2       0.32914    0.81009    0.47591   1.00
H2       0.70518    1.03728    0.36485   1.00
H2       0.34973    0.88085    0.44290   1.00
H2       0.58873    1.02782    0.37368   1.00
H2       0.43745    0.92548    0.44848   1.00
H2       0.56040    0.94521    0.38308   1.00
H2       0.40892    0.88440    0.42477   1.00
H2       0.55684    1.00681    0.39870   1.00
H2       0.32281    0.70456    0.44585   1.00
H2       0.74833    1.11927    0.40420   1.00
H2       0.28246    0.75336    0.44273   1.00
H2       0.69937    1.12757    0.38479   1.00
H2       0.33606    0.75254    0.42348   1.00
H2       0.66937    1.11331    0.41000   1.00
C4       0.19436    -0.16209   0.46612   1.00
C4       0.16662    -0.14051   0.45020   1.00
C3       0.16545    -0.17805   0.48594   1.00
C3       0.10412    -0.14028   0.45234   1.00
C3       0.25332    -0.16811   0.46235   1.00
C3       0.20199    -0.11825   0.43130   1.00
C2       0.24841    -0.20894   0.49805   1.00
C2       0.11216    -0.09373   0.41837   1.00
C3       0.19135    -0.20110   0.50141   1.00
C3       0.07779    -0.11731   0.43698   1.00
C3       0.27788    -0.19212   0.47849   1.00
C3       0.17364    -0.09490   0.41607   1.00
H1       0.12491    -0.17289   0.48994   1.00
H1       0.07503    -0.15743   0.46508   1.00
C5       0.28637    -0.15003   0.44296   1.00
C5       0.26366    -0.12002   0.42794   1.00
H1       0.16802    -0.21203   0.51536   1.00
H1       0.03261    -0.11818   0.43950   1.00
H1       0.31940    -0.19752   0.47635   1.00
H1       0.19755    -0.07823   0.40248   1.00
C6       0.34417    -0.16353   0.43851   1.00
C6       0.30430    -0.08957   0.40872   1.00
H2       0.33058    -0.21401   0.44414   1.00
H2       0.30698    -0.04097   0.40571   1.00
H2       0.34944    -0.16912   0.42234   1.00
H2       0.35780    -0.07386   0.41076   1.00
C6       0.41450    -0.10716   0.44715   1.00
C6       0.27584    -0.13873   0.39002   1.00
H2       0.40762    -0.09408   0.46260   1.00
H2       0.22030    -0.16256   0.38957   1.00
C6       0.47436    -0.12297   0.44748   1.00
C6       0.30391    -0.10779   0.36856   1.00
H2       0.43072    -0.06081   0.43828   1.00
H2       0.28590    -0.18057   0.39258   1.00
C6       0.45996    -0.18167   0.46240   1.00
C6       0.28223    -0.05530   0.36232   1.00
C6       0.48860    -0.14133   0.42609   1.00
C6       0.38263    -0.07343   0.36761   1.00
C6       0.53996    -0.05830   0.45484   1.00
C6       0.27357    -0.16639   0.35272   1.00
H2       0.44860    -0.17076   0.47758   1.00
H2       0.22693    -0.07768   0.36315   1.00
H2       0.41682    -0.22985   0.45743   1.00
H2       0.30529    -0.01058   0.37210   1.00
H2       0.50386    -0.18913   0.46358   1.00
H2       0.29796    -0.03758   0.34681   1.00
H2       0.53345    -0.14746   0.42621   1.00
H2       0.40124    -0.05637   0.35224   1.00
H2       0.44568    -0.18914   0.42075   1.00
H2       0.40671    -0.02887   0.37747   1.00
H2       0.49750    -0.10145   0.41519   1.00
H2       0.39934    -0.10890   0.37235   1.00
H2       0.53286    -0.04353   0.47002   1.00
H2       0.21795    -0.19196   0.35262   1.00
H2       0.58322    -0.06697   0.45546   1.00
H2       0.29136    -0.14721   0.33743   1.00
H2       0.55361    -0.01532   0.44468   1.00
H2       0.28826    -0.20449   0.35608   1.00
C4       0.34836    0.15341    0.03159   1.00
C4       0.29658    0.13223    0.04675   1.00
C3       0.35724    0.10602    0.01962   1.00
C3       0.24570    0.06261    0.04954   1.00
C3       0.39351    0.22451    0.02807   1.00
C3       0.29477    0.18188    0.05973   1.00
C2       0.45089    0.19616    0.00024   1.00
C2       0.19386    0.08895    0.07806   1.00
C3       0.40668    0.12661    0.00435   1.00
C3       0.19607    0.04146    0.06477   1.00
C3       0.44293    0.24335    0.01230   1.00
C3       0.24361    0.15820    0.07513   1.00
H1       0.32857    0.05476    0.02169   1.00
H1       0.24238    0.02472    0.04048   1.00
C5       0.38892    0.27462    0.04021   1.00
C5       0.34288    0.25302    0.05710   1.00
H1       0.41030    0.08990    -0.00380   1.00
H1       0.16096    -0.00954   0.06605   1.00
H1       0.47564    0.29339    0.00925   1.00
H1       0.24097    0.19191    0.08474   1.00
C6       0.43206    0.34945    0.03491   1.00
C6       0.34497    0.30421    0.07228   1.00
H2       0.43087    0.35550    0.01854   1.00
H2       0.34115    0.28419    0.08755   1.00
H2       0.40924    0.37879    0.04037   1.00
H2       0.39480    0.35011    0.07271   1.00
C6       0.50696    0.38255    0.04309   1.00
C6       0.28932    0.32471    0.06830   1.00
H2       0.52699    0.34830    0.04021   1.00
H2       0.24060    0.27906    0.06491   1.00
C6       0.56008    0.45476    0.03481   1.00
C6       0.27659    0.36506    0.08540   1.00
H2       0.50501    0.38570    0.05959   1.00
H2       0.30333    0.35519    0.05444   1.00
C6       0.57416    0.45262    0.01187   1.00
C6       0.24594    0.32100    0.10472   1.00
C6       0.53645    0.50737    0.03844   1.00
C6       0.34294    0.43145    0.09110   1.00
C6       0.62849    0.47987    0.04626   1.00
C6       0.22438    0.38509    0.07749   1.00
H2       0.58988    0.41511    0.00876   1.00
H2       0.19958    0.27319    0.10114   1.00
H2       0.52909    0.43938    0.00277   1.00
H2       0.28178    0.30856    0.11181   1.00
H2       0.61463    0.50211    0.00657   1.00
H2       0.23286    0.34785    0.11600   1.00
H2       0.57591    0.55848    0.03395   1.00
H2       0.33263    0.46158    0.10196   1.00
H2       0.49092    0.49461    0.02960   1.00
H2       0.37980    0.42008    0.09805   1.00
H2       0.52481    0.50885    0.05443   1.00
H2       0.36634    0.46276    0.07768   1.00
H2       0.64783    0.44479    0.04401   1.00
H2       0.17622    0.33987    0.07344   1.00
H2       0.66747    0.53005    0.04090   1.00
H2       0.21346    0.41306    0.08898   1.00
H2       0.62217    0.48378    0.06252   1.00
H2       0.24372    0.41746    0.06407   1.00
C4       0.80617    0.65112    0.03171   1.00
C4       0.83669    0.70251    0.04699   1.00
C3       0.75888    0.65026    0.01729   1.00
C3       0.82767    0.76042    0.04759   1.00
C3       0.82291    0.59811    0.03061   1.00
C3       0.87806    0.69666    0.06235   1.00
C2       0.74697    0.54914    0.00019   1.00
C2       0.89563    0.80475    0.07844   1.00
C3       0.73038    0.60108    0.00194   1.00
C3       0.85590    0.80986    0.06288   1.00
C3       0.79306    0.54921    0.01467   1.00
C3       0.90558    0.74792    0.07771   1.00
H1       0.74284    0.68493    0.01752   1.00
H1       0.80081    0.76919    0.03683   1.00
C5       0.86799    0.59465    0.04523   1.00
C5       0.89133    0.64102    0.06205   1.00
H1       0.69680    0.60343    -0.00805   1.00
H1       0.84727    0.85027    0.06251   1.00
H1       0.80408    0.51103    0.01331   1.00
H1       0.93487    0.74528    0.08897   1.00
C6       0.89091    0.54273    0.04260   1.00
C6       0.92906    0.63152    0.07956   1.00
H2       0.90393    0.54177    0.02674   1.00
H2       0.90932    0.63929    0.09377   1.00
H2       0.93945    0.55883    0.05005   1.00
H2       0.91672    0.57875    0.08100   1.00
C6       0.83734    0.46988    0.05042   1.00
C6       1.00842    0.67824    0.07807   1.00
H2       0.78638    0.45729    0.04537   1.00
H2       1.02093    0.72978    0.07369   1.00
C6       0.84840    0.40917    0.04447   1.00
C6       1.05153    0.68409    0.09731   1.00
H2       0.83587    0.47216    0.06696   1.00
H2       1.02608    0.65957    0.06551   1.00
C6       0.84031    0.39533    0.02130   1.00
C6       1.03740    0.72044    0.11502   1.00
C6       0.91935    0.42199    0.05128   1.00
C6       1.03786    0.61326    0.10456   1.00
C6       0.79334    0.34374    0.05529   1.00
C6       1.12831    0.72752    0.09183   1.00
H2       0.79112    0.38717    0.01595   1.00
H2       1.04552    0.77019    0.11030   1.00
H2       0.88014    0.43779    0.01279   1.00
H2       0.98520    0.69050    0.12050   1.00
H2       0.84340    0.35007    0.01748   1.00
H2       1.07104    0.72850    0.12786   1.00
H2       0.92465    0.37742    0.04837   1.00
H2       1.07164    0.61824    0.11706   1.00
H2       0.96000    0.46480    0.04306   1.00
H2       0.98559    0.58221    0.10992   1.00
H2       0.92693    0.43329    0.06747   1.00
H2       1.04606    0.58598    0.09224   1.00
H2       0.74214    0.33195    0.05083   1.00
H2       1.14087    0.77845    0.08680   1.00
H2       0.79868    0.29970    0.05149   1.00
H2       1.16059    0.73346    0.10486   1.00
H2       0.79731    0.34983    0.07174   1.00
H2       1.14180    0.70374    0.07966   1.00
C4       -0.16209   0.19438    0.03389   1.00
C4       -0.14051   0.16664    0.04981   1.00
C3       -0.17823   0.16536    0.01408   1.00
C3       -0.14044   0.10406    0.04768   1.00
C3       -0.16794   0.25344    0.03763   1.00
C3       -0.11806   0.20211    0.06869   1.00
C2       -0.20895   0.24842    0.00196   1.00
C2       -0.09372   0.11219    0.08163   1.00
C3       -0.20127   0.19125    -0.00139   1.00
C3       -0.11747   0.07773    0.06304   1.00
C3       -0.19196   0.27800    0.02150   1.00
C3       -0.09472   0.17376    0.08391   1.00
H1       -0.17319   0.12473    0.01009   1.00
H1       -0.15772   0.07490    0.03496   1.00
C5       -0.14968   0.28660    0.05702   1.00
C5       -0.11967   0.26387    0.07203   1.00
H1       -0.21234   0.16783    -0.01532   1.00
H1       -0.11845   0.03248    0.06054   1.00
H1       -0.19724   0.31959    0.02363   1.00
H1       -0.07793   0.19774    0.09749   1.00
C6       -0.16300   0.34453    0.06145   1.00
C6       -0.08904   0.30461    0.09122   1.00
H2       -0.21349   0.33101    0.05584   1.00
H2       -0.04048   0.30719    0.09421   1.00
H2       -0.16847   0.34991    0.07761   1.00
H2       -0.07324   0.35812    0.08915   1.00
C6       -0.10659   0.41476    0.05276   1.00
C6       -0.13810   0.27634    0.10995   1.00
H2       -0.09363   0.40775    0.03731   1.00
H2       -0.16202   0.22079    0.11042   1.00
C6       -0.12223   0.47473    0.05242   1.00
C6       -0.10699   0.30449    0.13139   1.00
H2       -0.06019   0.43093    0.06161   1.00
H2       -0.17987   0.28649    0.10740   1.00
C6       -0.18099   0.46036    0.03753   1.00
C6       -0.05457   0.28269    0.13762   1.00
C6       -0.14040   0.48915    0.07382   1.00
C6       -0.07247   0.38322    0.13230   1.00
C6       -0.05753   0.54020    0.04501   1.00
C6       -0.16549   0.27434    0.14726   1.00
H2       -0.17021   0.44887    0.02235   1.00
H2       -0.07707   0.22738    0.13681   1.00
H2       -0.22918   0.41732    0.04253   1.00
H2       -0.00991   0.30562    0.12781   1.00
H2       -0.18834   0.50432    0.03634   1.00
H2       -0.03674   0.29849    0.15312   1.00
H2       -0.14642   0.53406    0.07368   1.00
H2       -0.05530   0.40191    0.14766   1.00
H2       -0.18822   0.44632    0.07918   1.00
H2       -0.02797   0.40717    0.12241   1.00
H2       -0.10048   0.49803    0.08469   1.00
H2       -0.10789   0.40001    0.12757   1.00
H2       -0.04288   0.53297    0.02983   1.00
H2       -0.19117   0.21872    0.14739   1.00
H2       -0.06609   0.58353    0.04438   1.00
H2       -0.14620   0.29220    0.16254   1.00
H2       -0.01450   0.55382    0.05515   1.00
H2       -0.20354   0.28913    0.14391   1.00
C4       0.51129    0.97359    0.86834   1.00
C4       0.53211    1.02328    0.88413   1.00
C3       0.55721    0.95621    0.85893   1.00
C3       0.59820    1.05374    0.89307   1.00
C3       0.44212    0.93955    0.86148   1.00
C3       0.48570    1.04383    0.89148   1.00
C2       0.46848    0.87072    0.83709   1.00
C2       0.57543    1.12622    0.91538   1.00
C3       0.53651    0.90612    0.84386   1.00
C3       0.61943    1.10389    0.90814   1.00
C3       0.42301    0.88859    0.84617   1.00
C3       0.50944    1.09533    0.90677   1.00
H1       0.60758    0.97977    0.86254   1.00
H1       0.63316    1.04014    0.88910   1.00
C5       0.39422    0.95692    0.86977   1.00
C5       0.41754    1.01292    0.88367   1.00
H1       0.57205    0.89575    0.83773   1.00
H1       0.66785    1.12405    0.91392   1.00
H1       0.37418    0.86295    0.84100   1.00
H1       0.47809    1.11162    0.91228   1.00
C6       0.31968    0.91553    0.86395   1.00
C6       0.37143    1.04023    0.89000   1.00
H2       0.30409    0.86155    0.86418   1.00
H2       0.40040    1.09578    0.88971   1.00
H2       0.28683    0.91802    0.87553   1.00
H2       0.33227    1.02934    0.87872   1.00
C6       0.30329    0.93722    0.84306   1.00
C6       0.33652    1.01256    0.91110   1.00
H2       0.34226    0.94449    0.83197   1.00
H2       0.37403    1.01421    0.92187   1.00
C6       0.23189    0.88879    0.83338   1.00
C6       0.30017    1.04841    0.92123   1.00
H2       0.30850    0.98752    0.84501   1.00
H2       0.29911    0.95849    0.90928   1.00
C6       0.22446    0.81937    0.82709   1.00
C6       0.35182    1.12299    0.92734   1.00
C6       0.17299    0.87605    0.84795   1.00
C6       0.24515    1.04785    0.90714   1.00
C6       0.22456    0.92314    0.81390   1.00
C6       0.26430    1.00901    0.94090   1.00
H2       0.26595    0.82665    0.81705   1.00
H2       0.39201    1.12524    0.93703   1.00
H2       0.22491    0.79050    0.84024   1.00
H2       0.37596    1.15473    0.91409   1.00
H2       0.17652    0.78785    0.81910   1.00
H2       0.32669    1.14598    0.93563   1.00
H2       0.12356    0.84630    0.84054   1.00
H2       0.21683    1.06853    0.91488   1.00
H2       0.17298    0.84776    0.86132   1.00
H2       0.26826    1.07884    0.89367   1.00
H2       0.17783    0.92421    0.85294   1.00
H2       0.20893    0.99603    0.90227   1.00
H2       0.26462    0.93263    0.80298   1.00
H2       0.30110    1.00850    0.95149   1.00
H2       0.17555    0.89098    0.80649   1.00
H2       0.23849    1.03244    0.94861   1.00
H2       0.22798    0.97186    0.81740   1.00
H2       0.22615    0.95624    0.93753   1.00
C4       0.01602    0.52655    0.86516   1.00
C4       -0.03704   0.49820    0.88001   1.00
C3       0.06752    0.50806    0.86391   1.00
C3       -0.04652   0.44431    0.89320   1.00
C3       0.01853    0.57540    0.85093   1.00
C3       -0.08292   0.52402    0.88191   1.00
C2       0.12141    0.58132    0.83453   1.00
C2       -0.14224   0.44309    0.91069   1.00
C3       0.11845    0.53427    0.84902   1.00
C3       -0.09725   0.41775    0.90816   1.00
C3       0.07102    0.60059    0.83593   1.00
C3       -0.13367   0.49583    0.89741   1.00
H1       0.07036    0.47536    0.87390   1.00
H1       -0.01734   0.42187    0.89231   1.00
C5       -0.03021   0.59814    0.85197   1.00
C5       -0.07772   0.57627    0.86849   1.00
H1       0.15396    0.51869    0.84888   1.00
H1       -0.10125   0.37909    0.91725   1.00
H1       0.07420    0.63504    0.82546   1.00
H1       -0.16693   0.51319    0.89933   1.00
C6       -0.03140   0.64422    0.83553   1.00
C6       -0.12179   0.60814    0.87207   1.00
H2       -0.02607   0.62552    0.82080   1.00
H2       -0.12210   0.61820    0.88822   1.00
H2       -0.08136   0.63965    0.83417   1.00
H2       -0.09885   0.65924    0.86575   1.00
C6       0.02345    0.72116    0.83867   1.00
C6       -0.19589   0.56435    0.86346   1.00
H2       0.07203    0.72537    0.84297   1.00
H2       -0.21578   0.51072    0.86731   1.00
C6       0.03727    0.77102    0.82052   1.00
C6       -0.25013   0.58411    0.87012   1.00
H2       0.00800    0.73975    0.85178   1.00
H2       -0.19252   0.56656    0.84692   1.00
C6       0.06988    0.75473    0.80224   1.00
C6       -0.26616   0.57183    0.89312   1.00
C6       -0.02884   0.76930    0.81347   1.00
C6       -0.22676   0.65943    0.86502   1.00
C6       0.08835    0.84473    0.82760   1.00
C6       -0.31742   0.53832    0.85843   1.00
H2       0.11612    0.75445    0.80679   1.00
H2       -0.28175   0.51934    0.89727   1.00
H2       0.03494    0.70513    0.79568   1.00
H2       -0.22199   0.60554    0.90229   1.00
H2       0.08365    0.79255    0.79023   1.00
H2       -0.30734   0.58122    0.89733   1.00
H2       -0.01789   0.80767    0.80181   1.00
H2       -0.26689   0.67131    0.86838   1.00
H2       -0.06482   0.71977    0.80703   1.00
H2       -0.18212   0.69404    0.87392   1.00
H2       -0.05360   0.77921    0.82616   1.00
H2       -0.21378   0.66981    0.84899   1.00
H2       0.13632    0.84893    0.83256   1.00
H2       -0.33656   0.48446    0.86167   1.00
H2       0.09999    0.88147    0.81538   1.00
H2       -0.35713   0.54991    0.86267   1.00
H2       0.06762    0.85977    0.84025   1.00
H2       -0.30973   0.54571    0.84208   1.00
C4       0.47254    0.48790    0.86500   1.00
C4       0.50039    0.46283    0.87989   1.00
C3       0.49975    0.55889    0.86138   1.00
C3       0.56153    0.50648    0.89066   1.00
C3       0.41522    0.44093    0.85316   1.00
C3       0.46654    0.39149    0.88434   1.00
C2       0.41837    0.53862    0.83421   1.00
C2       0.55496    0.41264    0.91071   1.00
C3       0.47380    0.58359    0.84639   1.00
C3       0.58790    0.48233    0.90568   1.00
C3       0.39056    0.46816    0.83798   1.00
C3       0.49486    0.36901    0.89982   1.00
H1       0.53901    0.59534    0.86963   1.00
H1       0.58958    0.55738    0.88786   1.00
C5       0.38384    0.36896    0.85669   1.00
C5       0.40637    0.34466    0.87339   1.00
H1       0.49587    0.63538    0.84448   1.00
H1       0.63205    0.51648    0.91296   1.00
H1       0.35019    0.43637    0.82916   1.00
H1       0.47199    0.31874    0.90352   1.00
C6       0.32798    0.31964    0.84264   1.00
C6       0.36708    0.27050    0.87974   1.00
H2       0.34262    0.33618    0.82701   1.00
H2       0.36298    0.26765    0.89622   1.00
H2       0.32442    0.26997    0.84253   1.00
H2       0.31384    0.24647    0.87524   1.00
C6       0.25619    0.31022    0.84782   1.00
C6       0.39839    0.22742    0.87128   1.00
H2       0.26113    0.35995    0.85087   1.00
H2       0.45378    0.25598    0.87312   1.00
C6       0.19798    0.27280    0.83182   1.00
C6       0.37162    0.15455    0.88039   1.00
H2       0.23941    0.28234    0.86213   1.00
H2       0.38979    0.22235    0.85491   1.00
C6       0.21290    0.31482    0.81200   1.00
C6       0.39158    0.15779    0.90305   1.00
C6       0.18652    0.20106    0.82669   1.00
C6       0.29322    0.10970    0.87825   1.00
C6       0.13066    0.26386    0.84086   1.00
C6       0.40486    0.11927    0.86859   1.00
H2       0.22233    0.36619    0.81515   1.00
H2       0.44657    0.19002    0.90511   1.00
H2       0.25738    0.31952    0.80416   1.00
H2       0.36650    0.17826    0.91246   1.00
H2       0.16997    0.29066    0.80150   1.00
H2       0.37686    0.10716    0.90887   1.00
H2       0.14272    0.17354    0.81665   1.00
H2       0.27569    0.05762    0.88332   1.00
H2       0.23082    0.20464    0.81900   1.00
H2       0.26715    0.12975    0.88742   1.00
H2       0.17732    0.17090    0.84044   1.00
H2       0.27767    0.10773    0.86249   1.00
H2       0.13578    0.31321    0.84457   1.00
H2       0.46037    0.14859    0.86980   1.00
H2       0.08846    0.23831    0.83017   1.00
H2       0.38805    0.06825    0.87451   1.00
H2       0.11663    0.23337    0.85471   1.00
H2       0.39150    0.11422    0.85253   1.00
C4       0.30677    0.17505    0.29833   1.00
C4       0.35703    0.19559    0.28271   1.00
C3       0.27210    0.21156    0.30266   1.00
C3       0.37095    0.24961    0.26898   1.00
C3       0.28996    0.11592    0.31024   1.00
C3       0.39524    0.16129    0.28051   1.00
C2       0.20273    0.13166    0.32923   1.00
C2       0.46097    0.23939    0.25177   1.00
C3       0.22142    0.19045    0.31756   1.00
C3       0.42154    0.27116    0.25403   1.00
C3       0.23778    0.09590    0.32519   1.00
C3       0.44656    0.18505    0.26516   1.00
H1       0.28286    0.25526    0.29528   1.00
H1       0.34440    0.27489    0.26919   1.00
C5       0.32515    0.07871    0.30716   1.00
C5       0.38154    0.10468    0.29333   1.00
H1       0.19813    0.21885    0.31989   1.00
H1       0.42928    0.31062    0.24465   1.00
H1       0.22408    0.05388    0.33387   1.00
H1       0.47510    0.16227    0.26322   1.00
C6       0.30188    0.01227    0.31834   1.00
C6       0.42714    0.07361    0.29228   1.00
H2       0.24639    -0.01770   0.31792   1.00
H2       0.48016    0.11439    0.29157   1.00
H2       0.31592    -0.02078   0.31028   1.00
H2       0.42644    0.04845    0.30639   1.00
C6       0.32974    0.02253    0.34059   1.00
C6       0.40878    0.02188    0.27433   1.00
H2       0.32474    0.06312    0.34792   1.00
H2       0.39962    0.04311    0.26059   1.00
C6       0.29732    -0.04095   0.35499   1.00
C6       0.46115    -0.00173   0.26898   1.00
H2       0.38456    0.04169    0.33975   1.00
H2       0.35992    -0.02330   0.27788   1.00
C6       0.22147    -0.06488   0.35964   1.00
C6       0.52881    0.05793    0.26062   1.00
C6       0.30275    -0.10123   0.34598   1.00
C6       0.47681    -0.03353   0.28756   1.00
C6       0.33660    -0.02061   0.37544   1.00
C6       0.42987    -0.05700   0.25216   1.00
H2       0.21577    -0.02313   0.36573   1.00
H2       0.51939    0.08221    0.24768   1.00
H2       0.19001    -0.08393   0.34608   1.00
H2       0.55572    0.09686    0.27211   1.00
H2       0.20070    -0.10605   0.37078   1.00
H2       0.56311    0.04004    0.25562   1.00
H2       0.28447    -0.14341   0.35674   1.00
H2       0.50949    -0.05421   0.28333   1.00
H2       0.27210    -0.12063   0.33226   1.00
H2       0.50319    0.00453    0.29934   1.00
H2       0.35551    -0.08536   0.34217   1.00
H2       0.42986    -0.07477   0.29400   1.00
H2       0.33375    0.02143    0.38257   1.00
H2       0.41849    -0.03690   0.23858   1.00
H2       0.31549    -0.06325   0.38609   1.00
H2       0.46483    -0.07483   0.24779   1.00
H2       0.39033    -0.00451   0.37322   1.00
H2       0.38257    -0.10116   0.25730   1.00
C4       0.87327    0.69185    0.29863   1.00
C4       0.84549    0.64252    0.28271   1.00
C3       0.91897    0.69151    0.31342   1.00
C3       0.86690    0.59397    0.27920   1.00
C3       0.85514    0.74381    0.30005   1.00
C3       0.79437    0.64101    0.26963   1.00
C2       0.93210    0.79355    0.33023   1.00
C2       0.78696    0.54060    0.25116   1.00
C3       0.94782    0.74095    0.32869   1.00
C3       0.83838    0.54430    0.26398   1.00
C3       0.88594    0.79342    0.31577   1.00
C3       0.76634    0.58937    0.25439   1.00
H1       0.93248    0.65494    0.31378   1.00
H1       0.90452    0.59331    0.28744   1.00
C5       0.80717    0.74508    0.28611   1.00
C5       0.77280    0.69039    0.27188   1.00
H1       0.98065    0.73804    0.33885   1.00
H1       0.85585    0.51057    0.26228   1.00
H1       0.87468    0.83143    0.31719   1.00
H1       0.72957    0.58636    0.24489   1.00
C6       0.79403    0.80439    0.28645   1.00
C6       0.71365    0.68373    0.25939   1.00
H2       0.84251    0.85177    0.28790   1.00
H2       0.67319    0.63052    0.25928   1.00
H2       0.77600    0.81132    0.27185   1.00
H2       0.68853    0.70823    0.26673   1.00
C6       0.74225    0.79773    0.30331   1.00
C6       0.73470    0.71279    0.23735   1.00
H2       0.75432    0.78097    0.31748   1.00
H2       0.76845    0.69616    0.23089   1.00
C6       0.73626    0.86227    0.30808   1.00
C6       0.67613    0.69527    0.22173   1.00
H2       0.69189    0.75633    0.29892   1.00
H2       0.76576    0.76823    0.23849   1.00
C6       0.80285    0.92025    0.31754   1.00
C6       0.63603    0.61799    0.21672   1.00
C6       0.71829    0.88942    0.28886   1.00
C6       0.62584    0.71783    0.22947   1.00
C6       0.67816    0.84229    0.32378   1.00
C6       0.70834    0.73410    0.20167   1.00
H2       0.81754    0.90238    0.33097   1.00
H2       0.67027    0.60021    0.21152   1.00
H2       0.84506    0.93971    0.30682   1.00
H2       0.60855    0.58779    0.22991   1.00
H2       0.79660    0.96313    0.32210   1.00
H2       0.59849    0.60700    0.20480   1.00
H2       0.70944    0.93133    0.29260   1.00
H2       0.58810    0.70986    0.21789   1.00
H2       0.75970    0.90855    0.27784   1.00
H2       0.59827    0.68862    0.24281   1.00
H2       0.67235    0.84918    0.28166   1.00
H2       0.65297    0.77177    0.23351   1.00
H2       0.68871    0.82340    0.33776   1.00
H2       0.74384    0.71945    0.19543   1.00
H2       0.67228    0.88592    0.32770   1.00
H2       0.66939    0.72313    0.19021   1.00
H2       0.62943    0.80242    0.31781   1.00
H2       0.73626    0.78913    0.20414   1.00
C4       0.81901    0.12694    0.29857   1.00
C4       0.79757    0.15486    0.28266   1.00
C3       0.77237    0.07866    0.31275   1.00
C3       0.72749    0.13124    0.27852   1.00
C3       0.88960    0.14760    0.30062   1.00
C3       0.84742    0.20841    0.27026   1.00
C2       0.86183    0.06793    0.33013   1.00
C2       0.75422    0.21354    0.25115   1.00
C3       0.79294    0.04973    0.32800   1.00
C3       0.70635    0.15982    0.26332   1.00
C3       0.90841    0.11663    0.31629   1.00
C3       0.82378    0.23640    0.25501   1.00
H1       0.72178    0.06321    0.31266   1.00
H1       0.68915    0.09191    0.28625   1.00
C5       0.93932    0.19814    0.28733   1.00
C5       0.91864    0.23237    0.27315   1.00
H1       0.75677    0.01498    0.33770   1.00
H1       0.65505    0.14068    0.26114   1.00
H1       0.95804    0.12965    0.31814   1.00
H1       0.85769    0.27485    0.24597   1.00
C6       1.01267    0.21415    0.28828   1.00
C6       0.97100    0.29381    0.26140   1.00
H2       1.01356    0.16659    0.28944   1.00
H2       0.95618    0.33278    0.26143   1.00
H2       1.03901    0.23445    0.27398   1.00
H2       1.01971    0.31975    0.26924   1.00
C6       1.05449    0.26487    0.30576   1.00
C6       0.98264    0.27602    0.23932   1.00
H2       1.02398    0.25026    0.31964   1.00
H2       0.93345    0.24153    0.23229   1.00
C6       1.12570    0.27332    0.31108   1.00
C6       1.02371    0.33675    0.22434   1.00
H2       1.06188    0.31492    0.30173   1.00
H2       1.00880    0.24664    0.24046   1.00
C6       1.11883    0.20687    0.32009   1.00
C6       0.98451    0.37481    0.21930   1.00
C6       1.17316    0.29496    0.29231   1.00
C6       1.09495    0.38823    0.23291   1.00
C6       1.16023    0.33003    0.32738   1.00
C6       1.03420    0.30777    0.20417   1.00
H2       1.08471    0.18962    0.33319   1.00
H2       0.93352    0.33963    0.21352   1.00
H2       1.09871    0.16581    0.30898   1.00
H2       0.97900    0.40008    0.23261   1.00
H2       1.16820    0.21465    0.32505   1.00
H2       1.01128    0.41394    0.20779   1.00
H2       1.22416    0.30544    0.29648   1.00
H2       1.12498    0.42768    0.22177   1.00
H2       1.15353    0.25474    0.28090   1.00
H2       1.09052    0.41363    0.24639   1.00
H2       1.17773    0.34087    0.28542   1.00
H2       1.12309    0.36248    0.23699   1.00
H2       1.12905    0.31690    0.34108   1.00
H2       0.98529    0.27156    0.19736   1.00
H2       1.21007    0.33753    0.33171   1.00
H2       1.06233    0.34830    0.19314   1.00
H2       1.16776    0.37867    0.32177   1.00
H2       1.06286    0.28143    0.20667   1.00
C4       0.81612    0.68150    0.80173   1.00
C4       0.79378    0.62886    0.78680   1.00
C3       0.77789    0.71388    0.80672   1.00
C3       0.72852    0.60000    0.77739   1.00
C3       0.87902    0.70331    0.81219   1.00
C3       0.83768    0.60340    0.78090   1.00
C2       0.85957    0.78562    0.83261   1.00
C2       0.74986    0.52475    0.75590   1.00
C3       0.79866    0.76412    0.82175   1.00
C3       0.70725    0.54978    0.76234   1.00
C3       0.89818    0.75436    0.82747   1.00
C3       0.81424    0.55250    0.76543   1.00
H1       0.73384    0.70266    0.79948   1.00
H1       0.69372    0.61391    0.78127   1.00
C5       0.92112    0.67463    0.80722   1.00
C5       0.90282    0.62843    0.79044   1.00
H1       0.76867    0.78530    0.82469   1.00
H1       0.65967    0.53125    0.75609   1.00
H1       0.94231    0.77087    0.83533   1.00
H1       0.84419    0.53347    0.76073   1.00
C6       0.98378    0.69286    0.81987   1.00
C6       0.95164    0.60640    0.78256   1.00
H2       0.97110    0.69171    0.83586   1.00
H2       0.95196    0.60797    0.76604   1.00
H2       0.99766    0.65338    0.81918   1.00
H2       1.00430    0.64361    0.78609   1.00
C6       1.04717    0.76282    0.81377   1.00
C6       0.93566    0.53483    0.79067   1.00
H2       1.03138    0.80077    0.81155   1.00
H2       0.88077    0.49928    0.78988   1.00
C6       1.10975    0.79406    0.82852   1.00
C6       0.97263    0.50019    0.78018   1.00
H2       1.06448    0.75644    0.79889   1.00
H2       0.94809    0.54019    0.80683   1.00
C6       1.09230    0.81495    0.84909   1.00
C6       0.94922    0.48069    0.75786   1.00
C6       1.13647    0.74405    0.83242   1.00
C6       1.05117    0.54662    0.78077   1.00
C6       1.16824    0.85947    0.81863   1.00
C6       0.95406    0.43342    0.79177   1.00
H2       1.07222    0.84942    0.84684   1.00
H2       0.89383    0.44879    0.75690   1.00
H2       1.05436    0.77072    0.85746   1.00
H2       0.96444    0.52570    0.74852   1.00
H2       1.13740    0.84094    0.85871   1.00
H2       0.97164    0.45240    0.75112   1.00
H2       1.18296    0.76806    0.84152   1.00
H2       1.07653    0.52016    0.77474   1.00
H2       1.09889    0.69904    0.84062   1.00
H2       1.06740    0.59235    0.77166   1.00
H2       1.14780    0.72742    0.81814   1.00
H2       1.06884    0.56226    0.79629   1.00
H2       1.15223    0.89688    0.81574   1.00
H2       0.89905    0.39843    0.79163   1.00
H2       1.21306    0.88347    0.82844   1.00
H2       0.97837    0.40707    0.78491   1.00
H2       1.18383    0.84782    0.80421   1.00
H2       0.97056    0.44398    0.80756   1.00
C4       0.30872    0.12628    0.79878   1.00
C4       0.36032    0.15227    0.78348   1.00
C3       0.24745    0.12905    0.79695   1.00
C3       0.35120    0.17623    0.76440   1.00
C3       0.31793    0.09629    0.81672   1.00
C3       0.42375    0.15469    0.78711   1.00
C2       0.20285    0.07073    0.82926   1.00
C2       0.46587    0.20795    0.75290   1.00
C3       0.19591    0.10185    0.81165   1.00
C3       0.40240    0.20355    0.74960   1.00
C3       0.26405    0.06885    0.83128   1.00
C3       0.47472    0.18324    0.77169   1.00
H1       0.23827    0.15153    0.78495   1.00
H1       0.30676    0.17410    0.76047   1.00
C5       0.37977    0.09461    0.81981   1.00
C5       0.43485    0.12868    0.80568   1.00
H1       0.15282    0.10522    0.80939   1.00
H1       0.39274    0.22022    0.73619   1.00
H1       0.26851    0.04670    0.84416   1.00
H1       0.52064    0.18626    0.77377   1.00
C6       0.38581    0.05634    0.83778   1.00
C6       0.50462    0.13817    0.81023   1.00
H2       0.33863    0.00770    0.83929   1.00
H2       0.54339    0.19000    0.80622   1.00
H2       0.42270    0.03988    0.83502   1.00
H2       0.51298    0.13744    0.82643   1.00
C6       0.40488    0.09836    0.85800   1.00
C6       0.51779    0.08390    0.79959   1.00
H2       0.37447    0.12340    0.85944   1.00
H2       0.50014    0.07711    0.78387   1.00
C6       0.39771    0.05921    0.87825   1.00
C6       0.59267    0.09735    0.79944   1.00
H2       0.45762    0.13979    0.85667   1.00
H2       0.48528    0.03480    0.80692   1.00
C6       0.32218    0.00643    0.88297   1.00
C6       0.64041    0.16068    0.78647   1.00
C6       0.43998    0.02256    0.87777   1.00
C6       0.62199    0.10682    0.82119   1.00
C6       0.42497    0.11158    0.89592   1.00
C6       0.59256    0.03467    0.78985   1.00
H2       0.29074    0.03053    0.88309   1.00
H2       0.62053    0.15607    0.77110   1.00
H2       0.30094    -0.03439   0.87178   1.00
H2       0.64620    0.20736    0.79307   1.00
H2       0.31724    -0.01718   0.89777   1.00
H2       0.69127    0.16685    0.78531   1.00
H2       0.43857    -0.00045   0.89244   1.00
H2       0.67226    0.11128    0.82103   1.00
H2       0.41990    -0.01811   0.86650   1.00
H2       0.62755    0.15300    0.82815   1.00
H2       0.49313    0.05835    0.87405   1.00
H2       0.58856    0.06354    0.83077   1.00
H2       0.39630    0.13845    0.89706   1.00
H2       0.57293    0.02614    0.77435   1.00
H2       0.42061    0.08656    0.91044   1.00
H2       0.64393    0.04184    0.78928   1.00
H2       0.47860    0.14949    0.89366   1.00
H2       0.56076    -0.01153   0.79858   1.00
C4       0.87322    0.18132    0.79861   1.00
C4       0.84741    0.20681    0.78322   1.00
C3       0.86246    0.11372    0.79820   1.00
C3       0.81534    0.16915    0.76531   1.00
C3       0.91129    0.22432    0.81518   1.00
C3       0.85354    0.27243    0.78557   1.00
C2       0.92825    0.13078    0.82919   1.00
C2       0.79219    0.25687    0.75256   1.00
C3       0.88936    0.08921    0.81294   1.00
C3       0.78824    0.19315    0.75047   1.00
C3       0.93813    0.19754    0.82983   1.00
C3       0.82492    0.29486    0.77017   1.00
H1       0.83409    0.07952    0.78727   1.00
H1       0.81109    0.12316    0.76227   1.00
C5       0.92136    0.29190    0.81688   1.00
C5       0.88784    0.31393    0.80287   1.00
H1       0.88001    0.04005    0.81174   1.00
H1       0.76549    0.16342    0.73794   1.00
H1       0.96585    0.22673    0.84175   1.00
H1       0.82786    0.34102    0.77137   1.00
C6       0.96775    0.33926    0.83325   1.00
C6       0.88757    0.37994    0.80624   1.00
H2       1.01367    0.33521    0.83401   1.00
H2       0.83654    0.37142    0.80329   1.00
H2       0.98858    0.39250    0.82912   1.00
H2       0.89428    0.39438    0.82216   1.00
C6       0.93206    0.32654    0.85445   1.00
C6       0.94287    0.44088    0.79343   1.00
H2       0.90259    0.27175    0.85743   1.00
H2       0.94311    0.42379    0.77794   1.00
C6       0.97850    0.36152    0.87334   1.00
C6       0.93763    0.50715    0.79218   1.00
H2       0.89445    0.34320    0.85349   1.00
H2       0.99280    0.45446    0.79966   1.00
C6       1.02637    0.33245    0.87776   1.00
C6       0.87286    0.49467    0.78053   1.00
C6       1.02187    0.43984    0.87064   1.00
C6       0.93781    0.53588    0.81352   1.00
C6       0.93215    0.34703    0.89220   1.00
C6       1.00050    0.56224    0.78039   1.00
H2       0.99736    0.27705    0.87941   1.00
H2       0.87064    0.47331    0.76551   1.00
H2       1.06328    0.34453    0.86562   1.00
H2       0.82654    0.45948    0.78864   1.00
H2       1.05509    0.35368    0.89174   1.00
H2       0.87208    0.54211    0.77851   1.00
H2       1.05035    0.46420    0.88444   1.00
H2       0.93907    0.58460    0.81245   1.00
H2       1.05875    0.45300    0.85841   1.00
H2       0.89211    0.50102    0.82198   1.00
H2       0.98949    0.46144    0.86710   1.00
H2       0.98220    0.54378    0.82220   1.00
H2       0.90087    0.29229    0.89492   1.00
H2       1.00240    0.54475    0.76509   1.00
H2       0.96234    0.37011    0.90585   1.00
H2       0.99892    0.60947    0.77899   1.00
H2       0.89804    0.36760    0.89018   1.00
H2       1.04789    0.57430    0.78809   1.00
C4       0.01557    0.48843    0.36505   1.00
C4       -0.03581   0.46756    0.38033   1.00
C3       0.01622    0.44206    0.35056   1.00
C3       -0.09390   0.40075    0.38087   1.00
C3       0.06878    0.55810    0.36401   1.00
C3       -0.02976   0.51467    0.39575   1.00
C2       0.11753    0.53121    0.33352   1.00
C2       -0.13804   0.42426    0.41178   1.00
C3       0.06538    0.46274    0.33520   1.00
C3       -0.14334   0.37953    0.39616   1.00
C3       0.11767    0.57716    0.34807   1.00
C3       -0.08103   0.49093    0.41111   1.00
H1       -0.01862   0.39140    0.35074   1.00
H1       -0.10282   0.36520    0.37007   1.00
C5       0.07245    0.60655    0.37870   1.00
C5       0.02607    0.58349    0.39551   1.00
H1       0.06288    0.42686    0.32517   1.00
H1       -0.18389   0.33058    0.39574   1.00
H1       0.15600    0.62631    0.34675   1.00
H1       -0.07825   0.52278    0.42241   1.00
C6       0.12462    0.68137    0.37614   1.00
C6       0.03577    0.63057    0.41308   1.00
H2       0.12566    0.69557    0.36030   1.00
H2       0.02787    0.60285    0.42726   1.00
H2       0.10870    0.71387    0.38364   1.00
H2       0.08861    0.67083    0.41454   1.00
C6       0.19738    0.70024    0.38394   1.00
C6       -0.01068   0.66353    0.41167   1.00
H2       0.20976    0.66179    0.37882   1.00
H2       -0.06228   0.62471    0.40727   1.00
C6       0.25829    0.77197    0.37805   1.00
C6       -0.01635   0.70067    0.43097   1.00
H2       0.19507    0.69629    0.40047   1.00
H2       0.00812    0.70001    0.39915   1.00
C6       0.27214    0.77794    0.35488   1.00
C6       -0.05288   0.65002    0.44863   1.00
C6       0.24577    0.83020    0.38495   1.00
C6       0.05458    0.75753    0.43825   1.00
C6       0.32361    0.78192    0.38884   1.00
C6       -0.05952   0.73438    0.42556   1.00
H2       0.28009    0.73685    0.34947   1.00
H2       -0.10270   0.60858    0.44388   1.00
H2       0.22978    0.77562    0.34640   1.00
H2       -0.02312   0.62750    0.45406   1.00
H2       0.31753    0.82625    0.35110   1.00
H2       -0.06080   0.67555    0.46151   1.00
H2       0.29048    0.88003    0.38208   1.00
H2       0.04974    0.78628    0.45080   1.00
H2       0.20306    0.82835    0.37676   1.00
H2       0.08544    0.73605    0.44357   1.00
H2       0.23447    0.82633    0.40114   1.00
H2       0.08197    0.79312    0.42597   1.00
H2       0.33518    0.74241    0.38432   1.00
H2       -0.11050   0.69622    0.42051   1.00
H2       0.36777    0.83124    0.38508   1.00
H2       -0.06532   0.76065    0.43863   1.00
H2       0.31751    0.77961    0.40529   1.00
H2       -0.03561   0.77177    0.41343   1.00
C4       0.47279    0.98448    0.36503   1.00
C4       0.50331    1.03590    0.38030   1.00
C3       0.42498    0.98322    0.35074   1.00
C3       0.49375    1.09346    0.38102   1.00
C3       0.49006    0.93187    0.36381   1.00
C3       0.54525    1.03043    0.39555   1.00
C2       0.41356    0.88248    0.33352   1.00
C2       0.56228    1.13816    0.41175   1.00
C3       0.39646    0.93403    0.33539   1.00
C3       0.52199    1.14291    0.39630   1.00
C3       0.46016    0.88294    0.34788   1.00
C3       0.57277    1.08168    0.41091   1.00
H1       0.40857    1.01759    0.35106   1.00
H1       0.46645    1.10197    0.37034   1.00
C5       0.53568    0.92881    0.37830   1.00
C5       0.55908    0.97516    0.39513   1.00
H1       0.36249    0.93608    0.32549   1.00
H1       0.51296    1.18306    0.39601   1.00
H1       0.47155    0.84503    0.34643   1.00
H1       0.60246    1.07930    0.42209   1.00
C6       0.55912    0.87733    0.37554   1.00
C6       0.59744    0.96601    0.41252   1.00
H2       0.57186    0.87651    0.35964   1.00
H2       0.57785    0.97355    0.42680   1.00
H2       0.60789    0.89379    0.38288   1.00
H2       0.58555    0.91336    0.41392   1.00
C6       0.50613    0.80432    0.38340   1.00
C6       0.67670    1.01324    0.41089   1.00
H2       0.45495    0.79133    0.37846   1.00
H2       0.68871    1.06466    0.40655   1.00
C6       0.51766    0.74399    0.37732   1.00
C6       0.72037    1.01942    0.43003   1.00
H2       0.50499    0.80655    0.39994   1.00
H2       0.69433    0.99483    0.39826   1.00
C6       0.50915    0.73017    0.35416   1.00
C6       0.70623    1.05546    0.44783   1.00
C6       0.58895    0.75739    0.38396   1.00
C6       0.70743    0.94878    0.43721   1.00
C6       0.46318    0.67834    0.38819   1.00
C6       0.79698    1.06335    0.42440   1.00
H2       0.45970    0.72161    0.34893   1.00
H2       0.71384    1.10506    0.44316   1.00
H2       0.54858    0.77281    0.34561   1.00
H2       0.65420    1.02518    0.45340   1.00
H2       0.51257    0.68515    0.35027   1.00
H2       0.74023    1.06376    0.46059   1.00
H2       0.59462    0.71306    0.38097   1.00
H2       0.74159    0.95402    0.44963   1.00
H2       0.62922    0.80038    0.37570   1.00
H2       0.65533    0.91739    0.44267   1.00
H2       0.59681    0.76868    0.40015   1.00
H2       0.71564    0.92171    0.42483   1.00
H2       0.41176    0.66615    0.38385   1.00
H2       0.80903    1.11417    0.41942   1.00
H2       0.46885    0.63456    0.38431   1.00
H2       0.82963    1.06954    0.43736   1.00
H2       0.46746    0.68442    0.40464   1.00
H2       0.81048    1.03982    0.41217   1.00
C4       0.51170    0.52721    0.36503   1.00
C4       0.53259    0.49668    0.38030   1.00
C3       0.55823    0.57498    0.35073   1.00
C3       0.59970    0.50622    0.38101   1.00
C3       0.44183    0.50997    0.36382   1.00
C3       0.48519    0.45478    0.39555   1.00
C2       0.46892    0.58644    0.33352   1.00
C2       0.57588    0.43771    0.41175   1.00
C3       0.53757    0.60350    0.33538   1.00
C3       0.62091    0.47797    0.39629   1.00
C3       0.42279    0.53986    0.34789   1.00
C3       0.50893    0.42726    0.41092   1.00
H1       0.60902    0.59137    0.35105   1.00
H1       0.63550    0.53348    0.37033   1.00
C5       0.39315    0.46438    0.37832   1.00
C5       0.41611    0.44099    0.39514   1.00
H1       0.57358    0.63745    0.32548   1.00
H1       0.67008    0.48698    0.39600   1.00
H1       0.37351    0.52851    0.34645   1.00
H1       0.47687    0.39760    0.42210   1.00
C6       0.31824    0.44098    0.37557   1.00
C6       0.36862    0.40267    0.41255   1.00
H2       0.30466    0.42822    0.35967   1.00
H2       0.39577    0.42227    0.42682   1.00
H2       0.28591    0.39222    0.38291   1.00
H2       0.32788    0.41458    0.41394   1.00
C6       0.29826    0.49400    0.38342   1.00
C6       0.33654    0.32340    0.41092   1.00
H2       0.33647    0.54517    0.37847   1.00
H2       0.37594    0.31136    0.40658   1.00
C6       0.22641    0.48251    0.37735   1.00
C6       0.29907    0.27977    0.43007   1.00
H2       0.30166    0.49517    0.39996   1.00
H2       0.30048    0.30577    0.39829   1.00
C6       0.22108    0.49099    0.35419   1.00
C6       0.34926    0.29391    0.44787   1.00
C6       0.16850    0.41124    0.38400   1.00
C6       0.24140    0.29276    0.43725   1.00
C6       0.21530    0.53703    0.38822   1.00
C6       0.26635    0.20314    0.42445   1.00
H2       0.26197    0.54042    0.34895   1.00
H2       0.39124    0.28627    0.44319   1.00
H2       0.22424    0.45153    0.34564   1.00
H2       0.37105    0.34595    0.45343   1.00
H2       0.17263    0.48759    0.35030   1.00
H2       0.32357    0.25993    0.46063   1.00
H2       0.11852    0.40559    0.38102   1.00
H2       0.21249    0.25862    0.44968   1.00
H2       0.17118    0.37094    0.37575   1.00
H2       0.26215    0.34487    0.44270   1.00
H2       0.17195    0.40339    0.40019   1.00
H2       0.20611    0.28454    0.42488   1.00
H2       0.25454    0.58843    0.38387   1.00
H2       0.30509    0.19106    0.41947   1.00
H2       0.16585    0.53138    0.38435   1.00
H2       0.23989    0.17052    0.43741   1.00
H2       0.21711    0.53276    0.40467   1.00
H2       0.22930    0.18964    0.41222   1.00
C4       0.17592    0.31662    0.19869   1.00
C4       0.20028    0.36974    0.21351   1.00
C3       0.10861    0.25933    0.19925   1.00
C3       0.15702    0.37298    0.22863   1.00
C3       0.21990    0.32004    0.18261   1.00
C3       0.27040    0.42211    0.21341   1.00
C2       0.12552    0.21086    0.16818   1.00
C2       0.25018    0.47526    0.24409   1.00
C3       0.08395    0.20817    0.18443   1.00
C3       0.18115    0.42387    0.24353   1.00
C3       0.19269    0.26709    0.16775   1.00
C3       0.29303    0.47282    0.22892   1.00
H1       0.07520    0.25226    0.21057   1.00
H1       0.10620    0.33886    0.22926   1.00
C5       0.28909    0.37498    0.18172   1.00
C5       0.31578    0.42318    0.19805   1.00
H1       0.03482    0.16832    0.18565   1.00
H1       0.14741    0.42321    0.25406   1.00
H1       0.22224    0.26798    0.15601   1.00
H1       0.34263    0.51063    0.22944   1.00
C6       0.33272    0.38185    0.16348   1.00
C6       0.39123    0.47454    0.19940   1.00
H2       0.30268    0.37291    0.14974   1.00
H2       0.40807    0.47701    0.21502   1.00
H2       0.37334    0.43419    0.16131   1.00
H2       0.42171    0.45695    0.19150   1.00
C6       0.36460    0.33438    0.16456   1.00
C6       0.41000    0.54677    0.19114   1.00
H2       0.32595    0.28358    0.16965   1.00
H2       0.37315    0.56065    0.19676   1.00
C6       0.39780    0.32574    0.14478   1.00
C6       0.48317    0.60740    0.19584   1.00
H2       0.40324    0.35396    0.17650   1.00
H2       0.40314    0.54272    0.17470   1.00
C6       0.34389    0.28801    0.12796   1.00
C6       0.49342    0.62379    0.21885   1.00
C6       0.45416    0.39537    0.13651   1.00
C6       0.53925    0.59275    0.18817   1.00
C6       0.43118    0.28202    0.14984   1.00
C6       0.49243    0.67197    0.18474   1.00
H2       0.30276    0.23909    0.13344   1.00
H2       0.45393    0.63329    0.22481   1.00
H2       0.32129    0.31795    0.12277   1.00
H2       0.49175    0.58198    0.22748   1.00
H2       0.36670    0.27805    0.11477   1.00
H2       0.54275    0.66902    0.22181   1.00
H2       0.48027    0.38849    0.12359   1.00
H2       0.58990    0.63715    0.19020   1.00
H2       0.43263    0.42642    0.13142   1.00
H2       0.53799    0.55055    0.19649   1.00
H2       0.49205    0.42362    0.14820   1.00
H2       0.53235    0.57965    0.17208   1.00
H2       0.39332    0.23189    0.15556   1.00
H2       0.45442    0.68501    0.18978   1.00
H2       0.45473    0.27416    0.13643   1.00
H2       0.54274    0.71594    0.18767   1.00
H2       0.47075    0.30669    0.16136   1.00
H2       0.48714    0.66406    0.16836   1.00
C4       0.69115    0.87379    0.20119   1.00
C4       0.64187    0.84641    0.21712   1.00
C3       0.68535    0.91117    0.18467   1.00
C3       0.58739    0.86052    0.21880   1.00
C3       0.74872    0.86382    0.20151   1.00
C3       0.64652    0.80326    0.23211   1.00
C2       0.79250    0.93205    0.16947   1.00
C2       0.54025    0.78839    0.24877   1.00
C3       0.73457    0.93975    0.16934   1.00
C3       0.53788    0.83219    0.23407   1.00
C3       0.79789    0.89408    0.18566   1.00
C3       0.59485    0.77513    0.24734   1.00
H1       0.64479    0.91846    0.18306   1.00
H1       0.58203    0.89246    0.20911   1.00
C5       0.75586    0.82422    0.21729   1.00
C5       0.70185    0.78951    0.23171   1.00
H1       0.72755    0.96638    0.15789   1.00
H1       0.49972    0.84415    0.23440   1.00
H1       0.83974    0.88851    0.18545   1.00
H1       0.59615    0.74385    0.25818   1.00
C6       0.82050    0.82019    0.21865   1.00
C6       0.70213    0.73809    0.24633   1.00
H2       0.86430    0.87085    0.21622   1.00
H2       0.65113    0.69358    0.24699   1.00
H2       0.82961    0.80911    0.23400   1.00
H2       0.73179    0.71607    0.24052   1.00
C6       0.82110    0.76639    0.20381   1.00
C6       0.72914    0.76831    0.26796   1.00
H2       0.80235    0.77078    0.18893   1.00
H2       0.70673    0.79908    0.27271   1.00
C6       0.89053    0.76828    0.20059   1.00
C6       0.71771    0.71689    0.28545   1.00
H2       0.78376    0.71575    0.20935   1.00
H2       0.78381    0.80415    0.26669   1.00
C6       0.94351    0.83456    0.18970   1.00
C6       0.64093    0.67094    0.29049   1.00
C6       0.92086    0.76148    0.22093   1.00
C6       0.74869    0.67134    0.28020   1.00
C6       0.87782    0.70721    0.18691   1.00
C6       0.75367    0.75811    0.30486   1.00
H2       0.92321    0.84143    0.17543   1.00
H2       0.61727    0.70161    0.29394   1.00
H2       0.95803    0.87940    0.19906   1.00
H2       0.61318    0.63740    0.27788   1.00
H2       0.99001    0.83329    0.18627   1.00
H2       0.63376    0.63862    0.30360   1.00
H2       0.96663    0.75794    0.21840   1.00
H2       0.74477    0.63913    0.29304   1.00
H2       0.93512    0.80563    0.23061   1.00
H2       0.72200    0.63780    0.26746   1.00
H2       0.88402    0.71593    0.22911   1.00
H2       0.80242    0.70246    0.27618   1.00
H2       0.85700    0.70995    0.17222   1.00
H2       0.73312    0.79069    0.30936   1.00
H2       0.92502    0.70658    0.18410   1.00
H2       0.74674    0.72434    0.31758   1.00
H2       0.84179    0.65876    0.19397   1.00
H2       0.80839    0.79060    0.30239   1.00
C4       0.12695    0.81902    0.20143   1.00
C4       0.15488    0.79759    0.21734   1.00
C3       0.07856    0.77236    0.18728   1.00
C3       0.13116    0.72751    0.22151   1.00
C3       0.14772    0.88964    0.19935   1.00
C3       0.20853    0.84745    0.22971   1.00
C2       0.06793    0.86184    0.16987   1.00
C2       0.21357    0.75424    0.24885   1.00
C3       0.04962    0.79294    0.17203   1.00
C3       0.15975    0.70637    0.23671   1.00
C3       0.11674    0.90845    0.18369   1.00
C3       0.23652    0.82381    0.24496   1.00
H1       0.06302    0.72176    0.18739   1.00
H1       0.09175    0.68918    0.21380   1.00
C5       0.19838    0.93937    0.21261   1.00
C5       0.23259    0.91868    0.22679   1.00
H1       0.01479    0.75674    0.16235   1.00
H1       0.14053    0.65507    0.23891   1.00
H1       0.12984    0.95810    0.18182   1.00
H1       0.27504    0.85772    0.25398   1.00
C6       0.21450    1.01276    0.21164   1.00
C6       0.29414    0.97103    0.23851   1.00
H2       0.16699    1.01374    0.21049   1.00
H2       0.33304    0.95611    0.23848   1.00
H2       0.23490    1.03916    0.22592   1.00
H2       0.32010    1.01970    0.23064   1.00
C6       0.26518    1.05444    0.19413   1.00
C6       0.27649    0.98283    0.26060   1.00
H2       0.25045    1.02385    0.18027   1.00
H2       0.24198    0.93370    0.26764   1.00
C6       0.27373    1.12567    0.18878   1.00
C6       0.33731    1.02390    0.27554   1.00
H2       0.31521    1.06175    0.19814   1.00
H2       0.24719    1.00907    0.25945   1.00
C6       0.20730    1.11888    0.17979   1.00
C6       0.37528    0.98460    0.28059   1.00
C6       0.29554    1.17323    0.20753   1.00
C6       0.38885    1.09506    0.26694   1.00
C6       0.33038    1.16004    0.17246   1.00
C6       0.30848    1.03456    0.29571   1.00
H2       0.18993    1.08469    0.16672   1.00
H2       0.34006    0.93366    0.28639   1.00
H2       0.16629    1.09888    0.19093   1.00
H2       0.40046    0.97897    0.26727   1.00
H2       0.21514    1.16826    0.17482   1.00
H2       0.41448    1.01139    0.29207   1.00
H2       0.30608    1.22424    0.20335   1.00
H2       0.42836    1.12510    0.27805   1.00
H2       0.25537    1.15371    0.21896   1.00
H2       0.41415    1.09051    0.25345   1.00
H2       0.34144    1.17775    0.21441   1.00
H2       0.36315    1.12326    0.26286   1.00
H2       0.31714    1.12878    0.15877   1.00
H2       0.27224    0.98571    0.30255   1.00
H2       0.33795    1.20989    0.16811   1.00
H2       0.34908    1.06269    0.30672   1.00
H2       0.37901    1.16751    0.17806   1.00
H2       0.28221    1.06328    0.29321   1.00
C4       0.98456    0.51192    0.63499   1.00
C4       1.03751    0.53696    0.62010   1.00
C3       0.93988    0.44092    0.63833   1.00
C3       1.05407    0.49311    0.60905   1.00
C3       0.97513    0.55894    0.64710   1.00
C3       1.07597    0.60845    0.61594   1.00
C2       0.87962    0.46121    0.66576   1.00
C2       1.14232    0.58715    0.58930   1.00
C3       0.88920    0.41622    0.65330   1.00
C3       1.10461    0.51726    0.59404   1.00
C3       0.92318    0.53169    0.66227   1.00
C3       1.12676    0.63095    0.60046   1.00
H1       0.94203    0.40450    0.62988   1.00
H1       1.03049    0.44204    0.61163   1.00
C5       1.01667    0.63097    0.64386   1.00
C5       1.06357    0.65542    0.62717   1.00
H1       0.85880    0.36443    0.65501   1.00
H1       1.11392    0.48297    0.58655   1.00
H1       0.91523    0.56351    0.67127   1.00
H1       1.15484    0.68134    0.59697   1.00
C6       1.01105    0.68018    0.65819   1.00
C6       1.09949    0.72991    0.62115   1.00
H2       1.00881    0.66279    0.67373   1.00
H2       1.09837    0.73359    0.60469   1.00
H2       1.05764    0.72946    0.65845   1.00
H2       1.07098    0.75448    0.62584   1.00
C6       0.94946    0.69108    0.65322   1.00
C6       1.17396    0.77162    0.62965   1.00
H2       0.90418    0.64187    0.65001   1.00
H2       1.20003    0.74241    0.62759   1.00
C6       0.92948    0.72845    0.66947   1.00
C6       1.22100    0.84473    0.62082   1.00
H2       0.96101    0.71969    0.63903   1.00
H2       1.17050    0.77602    0.64606   1.00
C6       0.90180    0.68561    0.68913   1.00
C6       1.23758    0.84223    0.59811   1.00
C6       0.99051    0.79949    0.67484   1.00
C6       1.18858    0.89049    0.62328   1.00
C6       0.87184    0.73897    0.66062   1.00
C6       1.28949    0.87851    0.63264   1.00
H2       0.85933    0.63470    0.68581   1.00
H2       1.25954    0.80939    0.59581   1.00
H2       0.94110    0.67977    0.69684   1.00
H2       1.19211    0.82285    0.58870   1.00
H2       0.88362    0.70983    0.69980   1.00
H2       1.27411    0.89293    0.59247   1.00
H2       0.97484    0.82707    0.68506   1.00
H2       1.22377    0.94264    0.61841   1.00
H2       1.03075    0.79476    0.68241   1.00
H2       1.14254    0.87153    0.61413   1.00
H2       1.01187    0.83019    0.66120   1.00
H2       1.17510    0.89197    0.63909   1.00
H2       0.82713    0.69016    0.65676   1.00
H2       1.31490    0.84851    0.63121   1.00
H2       0.85578    0.76454    0.67149   1.00
H2       1.32434    0.92964    0.62692   1.00
H2       0.88876    0.77009    0.64690   1.00
H2       1.28130    0.88300    0.64875   1.00
C4       0.52743    0.01539    0.63500   1.00
C4       0.49957    -0.03754   0.62011   1.00
C3       0.50045    0.05940    0.63855   1.00
C3       0.43860    -0.05480   0.60926   1.00
C3       0.58454    0.02551    0.64691   1.00
C3       0.53322    -0.07527   0.61573   1.00
C2       0.58161    0.12028    0.66578   1.00
C2       0.44498    -0.14232   0.58929   1.00
C3       0.52640    0.11005    0.65353   1.00
C3       0.41223    -0.10532   0.59425   1.00
C3       0.60921    0.07741    0.66208   1.00
C3       0.50491    -0.12607   0.60025   1.00
H1       0.46135    0.05674    0.63025   1.00
H1       0.41070    -0.03177   0.61201   1.00
C5       0.61570    -0.01531   0.64344   1.00
C5       0.59319    -0.06217   0.62675   1.00
H1       0.50449    0.13993    0.65539   1.00
H1       0.36821    -0.11516   0.58692   1.00
H1       0.64943    0.08584    0.67095   1.00
H1       0.52764    -0.15364   0.59661   1.00
C6       0.67131    -0.00900   0.65756   1.00
C6       0.63231    -0.09729   0.62048   1.00
H2       0.65654    -0.00702   0.67317   1.00
H2       0.63658    -0.09608   0.60401   1.00
H2       0.67465    -0.05524   0.65771   1.00
H2       0.68551    -0.06826   0.62503   1.00
C6       0.74327    0.05317    0.65244   1.00
C6       0.60063    -0.17171   0.62895   1.00
H2       0.73858    0.09808    0.64935   1.00
H2       0.54526    -0.19836   0.62706   1.00
C6       0.80127    0.07377    0.66850   1.00
C6       0.62723    -0.21805   0.61991   1.00
H2       0.76012    0.04196    0.63815   1.00
H2       0.60906    -0.16819   0.64533   1.00
C6       0.78629    0.10101    0.68828   1.00
C6       0.60749    -0.23473   0.59724   1.00
C6       0.81237    0.01329    0.67369   1.00
C6       0.70558    -0.18478   0.62213   1.00
C6       0.86880    0.13196    0.65950   1.00
C6       0.59363    -0.28656   0.63171   1.00
H2       0.77710    0.14307    0.68509   1.00
H2       0.55255    -0.25728   0.59512   1.00
H2       0.74165    0.06134    0.69609   1.00
H2       0.63283    -0.18919   0.58783   1.00
H2       0.82909    0.11962    0.69882   1.00
H2       0.62208    -0.27079   0.59146   1.00
H2       0.85604    0.02942    0.68377   1.00
H2       0.72297    -0.21948   0.61711   1.00
H2       0.76791    -0.02731   0.68135   1.00
H2       0.73190    -0.13866   0.61297   1.00
H2       0.82161    -0.00777   0.65997   1.00
H2       0.72099    -0.17121   0.63790   1.00
H2       0.86394    0.17631    0.65576   1.00
H2       0.53814    -0.31255   0.63046   1.00
H2       0.91086    0.14846    0.67024   1.00
H2       0.61031    -0.32093   0.62585   1.00
H2       0.88288    0.11539    0.64569   1.00
H2       0.60682    -0.27828   0.64779   1.00
C4       0.48795    0.47257    0.63500   1.00
C4       0.46289    0.50044    0.62011   1.00
C3       0.55895    0.49953    0.63854   1.00
C3       0.50660    0.56138    0.60926   1.00
C3       0.44096    0.41549    0.64692   1.00
C3       0.39151    0.46681    0.61574   1.00
C2       0.53866    0.41839    0.66578   1.00
C2       0.41270    0.55502    0.58929   1.00
C3       0.58365    0.47358    0.65352   1.00
C3       0.48245    0.58775    0.59424   1.00
C3       0.46820    0.39082    0.66209   1.00
C3       0.36902    0.49512    0.60026   1.00
H1       0.59539    0.53860    0.63023   1.00
H1       0.55755    0.58927    0.61199   1.00
C5       0.36897    0.38436    0.64346   1.00
C5       0.34463    0.40687    0.62677   1.00
H1       0.63544    0.49546    0.65538   1.00
H1       0.51664    0.63175    0.58690   1.00
H1       0.43640    0.35061    0.67096   1.00
H1       0.31871    0.47241    0.59662   1.00
C6       0.31968    0.32878    0.65759   1.00
C6       0.27038    0.36777    0.62051   1.00
H2       0.33646    0.34357    0.67319   1.00
H2       0.26730    0.36348    0.60403   1.00
H2       0.27012    0.32546    0.65774   1.00
H2       0.24619    0.31457    0.62506   1.00
C6       0.30984    0.25680    0.65247   1.00
C6       0.22768    0.39949    0.62898   1.00
H2       0.35943    0.26146    0.64938   1.00
H2       0.25642    0.45486    0.62708   1.00
C6       0.27244    0.19882    0.66854   1.00
C6       0.15473    0.37291    0.61994   1.00
H2       0.28176    0.23994    0.63819   1.00
H2       0.22279    0.39109    0.64536   1.00
C6       0.31469    0.21381    0.68832   1.00
C6       0.15777    0.39262    0.59728   1.00
C6       0.20089    0.18777    0.67374   1.00
C6       0.10963    0.29457    0.62218   1.00
C6       0.26306    0.13127    0.65955   1.00
C6       0.11987    0.40656    0.63175   1.00
H2       0.36593    0.22297    0.68512   1.00
H2       0.19018    0.44756    0.59514   1.00
H2       0.31971    0.25847    0.69612   1.00
H2       0.17794    0.36726    0.58787   1.00
H2       0.29051    0.17103    0.69886   1.00
H2       0.10712    0.37806    0.59151   1.00
H2       0.17335    0.14412    0.68383   1.00
H2       0.05753    0.27720    0.61717   1.00
H2       0.20479    0.23225    0.68140   1.00
H2       0.12938    0.26822    0.61301   1.00
H2       0.17058    0.17853    0.66002   1.00
H2       0.10780    0.27918    0.63795   1.00
H2       0.31226    0.13610    0.65580   1.00
H2       0.14939    0.46205    0.63049   1.00
H2       0.23750    0.08922    0.67029   1.00
H2       0.06882    0.38990    0.62589   1.00
H2       0.23239    0.11718    0.64574   1.00
H2       0.11498    0.39339    0.64783   1.00
C4       0.49196    0.02652    0.13169   1.00
C4       0.46802    -0.02328   0.11587   1.00
C3       0.55479    0.04787    0.14198   1.00
C3       0.50837    -0.04986   0.10780   1.00
C3       0.45216    0.05660    0.13766   1.00
C3       0.40135    -0.04795   0.10761   1.00
C2       0.54204    0.12966    0.16299   1.00
C2       0.41841    -0.12644   0.08457   1.00
C3       0.57934    0.09809    0.15708   1.00
C3       0.48431    -0.10011   0.09270   1.00
C3       0.47916    0.10784    0.15304   1.00
C3       0.37862    -0.09941   0.09232   1.00
H1       0.58475    0.02724    0.13902   1.00
H1       0.55701    -0.03321   0.11244   1.00
C5       0.38714    0.03512    0.12845   1.00
C5       0.35945    -0.02104   0.11452   1.00
H1       0.62516    0.11143    0.16387   1.00
H1       0.51582    -0.11737   0.08758   1.00
H1       0.45257    0.13074    0.15760   1.00
H1       0.33135    -0.11856   0.08618   1.00
C6       0.34901    0.07241    0.13336   1.00
C6       0.28646    -0.05269   0.10722   1.00
H2       0.38476    0.12712    0.13329   1.00
H2       0.26303    -0.10803   0.10756   1.00
H2       0.31431    0.06745    0.12123   1.00
H2       0.25483    -0.04438   0.11793   1.00
C6       0.30825    0.04864    0.15378   1.00
C6       0.27996    -0.02653   0.08579   1.00
H2       0.33998    0.04394    0.16545   1.00
H2       0.31869    -0.02540   0.07564   1.00
C6       0.27956    0.09342    0.16265   1.00
C6       0.20940    -0.06627   0.07478   1.00
H2       0.26561    -0.00303   0.15153   1.00
H2       0.29295    0.02665    0.08740   1.00
C6       0.33765    0.16468    0.16935   1.00
C6       0.19204    -0.13960   0.06896   1.00
C6       0.23299    0.10231    0.14723   1.00
C6       0.15105    -0.06984   0.08796   1.00
C6       0.23622    0.05722    0.18172   1.00
C6       0.21295    -0.02805   0.05486   1.00
H2       0.37212    0.16016    0.18001   1.00
H2       0.23281    -0.13890   0.05992   1.00
H2       0.36772    0.19467    0.15645   1.00
H2       0.18462    -0.17073   0.08235   1.00
H2       0.31722    0.19371    0.17679   1.00
H2       0.14516    -0.16522   0.06008   1.00
H2       0.20940    0.12941    0.15404   1.00
H2       0.10300    -0.09331   0.07960   1.00
H2       0.26205    0.13167    0.13409   1.00
H2       0.14325    -0.10028   0.10155   1.00
H2       0.19246    0.05286    0.14194   1.00
H2       0.16266    -0.01892   0.09262   1.00
H2       0.26696    0.05031    0.19322   1.00
H2       0.25300    -0.02474   0.04488   1.00
H2       0.21538    0.08684    0.18856   1.00
H2       0.16487    -0.05417   0.04654   1.00
H2       0.19347    0.00707    0.17790   1.00
H2       0.22371    0.02372    0.05800   1.00
C4       0.98398    0.47346    0.13483   1.00
C4       1.03510    0.50387    0.11948   1.00
C3       0.98796    0.43310    0.15077   1.00
C3       1.09707    0.50207    0.12018   1.00
C3       0.92625    0.48316    0.13446   1.00
C3       1.02475    0.53766    0.10269   1.00
C2       0.88233    0.41472    0.16646   1.00
C2       1.13704    0.56242    0.08793   1.00
C3       0.93894    0.40485    0.16617   1.00
C3       1.14641    0.53012    0.10485   1.00
C3       0.87765    0.45385    0.15049   1.00
C3       1.07608    0.56523    0.08735   1.00
H1       1.02629    0.42214    0.15168   1.00
H1       1.10900    0.48092    0.13194   1.00
C5       0.91797    0.52090    0.11832   1.00
C5       0.96468    0.54361    0.10159   1.00
H1       0.94490    0.37647    0.17729   1.00
H1       1.18990    0.52690    0.10621   1.00
H1       0.83616    0.46002    0.15082   1.00
H1       1.07035    0.58923    0.07511   1.00
C6       0.86062    0.53690    0.11927   1.00
C6       0.95098    0.57300    0.08272   1.00
H2       0.85756    0.55319    0.13460   1.00
H2       0.96192    0.55168    0.06938   1.00
H2       0.87227    0.58209    0.11049   1.00
H2       0.89692    0.55492    0.08081   1.00
C6       0.79037    0.47629    0.11206   1.00
C6       0.99102    0.65292    0.08232   1.00
H2       0.78277    0.42862    0.11860   1.00
H2       1.04366    0.67181    0.08714   1.00
C6       0.72501    0.48109    0.11657   1.00
C6       0.99292    0.68867    0.06181   1.00
H2       0.79351    0.47075    0.09569   1.00
H2       0.96891    0.67058    0.09390   1.00
C6       0.71057    0.47812    0.13966   1.00
C6       1.03341    0.67500    0.04528   1.00
C6       0.73064    0.54696    0.10761   1.00
C6       0.92021    0.66567    0.05385   1.00
C6       0.66284    0.41914    0.10654   1.00
C6       1.02965    0.76688    0.06541   1.00
H2       0.70741    0.43270    0.14650   1.00
H2       1.08466    0.68968    0.05056   1.00
H2       0.75039    0.52253    0.14750   1.00
H2       1.00807    0.62133    0.04109   1.00
H2       0.66245    0.47672    0.14258   1.00
H2       1.03849    0.70390    0.03151   1.00
H2       0.68303    0.54746    0.10956   1.00
H2       0.92203    0.69443    0.04034   1.00
H2       0.77074    0.59211    0.11514   1.00
H2       0.89370    0.61183    0.04975   1.00
H2       0.74223    0.55102    0.09143   1.00
H2       0.89014    0.67343    0.06536   1.00
H2       0.65613    0.37118    0.11251   1.00
H2       1.08162    0.78591    0.07086   1.00
H2       0.61577    0.41998    0.10939   1.00
H2       1.03266    0.79420    0.05145   1.00
H2       0.66938    0.41915    0.09014   1.00
H2       1.00266    0.77994    0.07666   1.00
C4       0.52723    0.51174    0.13497   1.00
C4       0.49671    0.53264    0.11970   1.00
C3       0.57525    0.55833    0.14922   1.00
C3       0.50650    0.59984    0.11895   1.00
C3       0.50975    0.44181    0.13624   1.00
C3       0.45453    0.48515    0.10451   1.00
C2       0.58648    0.46897    0.16648   1.00
C2       0.43772    0.57593    0.08826   1.00
C3       0.60378    0.53767    0.16456   1.00
C3       0.47825    0.62105    0.10366   1.00
C3       0.53966    0.42278    0.15217   1.00
C3       0.42702    0.50888    0.08914   1.00
H1       0.59182    0.60914    0.14885   1.00
H1       0.53397    0.63572    0.12959   1.00
C5       0.46390    0.39306    0.12180   1.00
C5       0.44048    0.41598    0.10497   1.00
H1       0.63791    0.57371    0.17442   1.00
H1       0.48745    0.67029    0.10392   1.00
H1       0.52813    0.37345    0.15365   1.00
H1       0.39717    0.47676    0.07800   1.00
C6       0.44026    0.31812    0.12462   1.00
C6       0.40186    0.36836    0.08763   1.00
H2       0.42763    0.30474    0.14053   1.00
H2       0.42139    0.39533    0.07332   1.00
H2       0.39139    0.28585    0.11732   1.00
H2       0.41356    0.32747    0.08625   1.00
C6       0.49300    0.29779    0.11675   1.00
C6       0.32264    0.33658    0.08932   1.00
H2       0.54427    0.33591    0.12164   1.00
H2       0.31084    0.37615    0.09364   1.00
C6       0.48128    0.22590    0.12287   1.00
C6       0.27875    0.29900    0.07022   1.00
H2       0.49400    0.30101    0.10021   1.00
H2       0.30502    0.30065    0.10198   1.00
C6       0.48997    0.22078    0.14604   1.00
C6       0.29288    0.34905    0.05238   1.00
C6       0.40985    0.16810    0.11630   1.00
C6       0.29138    0.24108    0.06307   1.00
C6       0.53553    0.21441    0.11198   1.00
C6       0.20220    0.26660    0.07591   1.00
H2       0.53952    0.26160    0.15122   1.00
H2       0.28549    0.39120    0.05704   1.00
H2       0.45069    0.22421    0.15461   1.00
H2       0.34485    0.37060    0.04677   1.00
H2       0.48640    0.17228    0.14996   1.00
H2       0.25873    0.32330    0.03966   1.00
H2       0.40404    0.11807    0.11933   1.00
H2       0.25707    0.21211    0.05068   1.00
H2       0.36974    0.17105    0.12458   1.00
H2       0.34342    0.26159    0.05758   1.00
H2       0.40187    0.17141    0.10012   1.00
H2       0.28317    0.20588    0.07548   1.00
H2       0.58703    0.25356    0.11628   1.00
H2       0.19037    0.30553    0.08087   1.00
H2       0.52972    0.16493    0.11590   1.00
H2       0.16940    0.24008    0.06298   1.00
H2       0.53110    0.21606    0.09554   1.00
H2       0.18870    0.22967    0.08817   1.00
C4       0.69326    0.82465    0.70169   1.00
C4       0.64332    0.80048    0.71747   1.00
C3       0.71884    0.89012    0.69264   1.00
C3       0.62083    0.84262    0.72675   1.00
C3       0.71909    0.78238    0.69447   1.00
C3       0.61429    0.73172    0.72445   1.00
C2       0.79668    0.87492    0.67046   1.00
C2       0.53991    0.75070    0.74869   1.00
C3       0.76922    0.91473    0.67757   1.00
C3       0.57048    0.81852    0.74182   1.00
C3       0.77064    0.80951    0.67919   1.00
C3       0.56287    0.70904    0.73974   1.00
H1       0.70135    0.92210    0.69651   1.00
H1       0.64069    0.89261    0.72306   1.00
C5       0.69323    0.71489    0.70240   1.00
C5       0.63695    0.68772    0.71628   1.00
H1       0.78572    0.96251    0.67172   1.00
H1       0.55629    0.85140    0.74785   1.00
H1       0.79061    0.78117    0.67377   1.00
H1       0.54069    0.66036    0.74499   1.00
C6       0.72609    0.67356    0.69620   1.00
C6       0.60075    0.61315    0.72222   1.00
H2       0.78134    0.70631    0.69649   1.00
H2       0.54587    0.59326    0.72196   1.00
H2       0.71838    0.63555    0.70755   1.00
H2       0.60647    0.58199    0.71072   1.00
C6       0.70054    0.63743    0.67515   1.00
C6       0.62488    0.60000    0.74317   1.00
H2       0.69875    0.67302    0.66430   1.00
H2       0.62878    0.63789    0.75418   1.00
C6       0.74140    0.60612    0.66513   1.00
C6       0.58104    0.52781    0.75296   1.00
H2       0.64763    0.59685    0.67698   1.00
H2       0.67690    0.60965    0.74127   1.00
C6       0.81439    0.66207    0.65900   1.00
C6       0.50927    0.51433    0.75918   1.00
C6       0.74597    0.55407    0.67935   1.00
C6       0.57333    0.47043    0.73850   1.00
C6       0.70370    0.56799    0.64551   1.00
C6       0.61755    0.52443    0.77249   1.00
H2       0.81298    0.70027    0.64922   1.00
H2       0.51295    0.55459    0.76914   1.00
H2       0.84522    0.68822    0.67223   1.00
H2       0.47912    0.51181    0.74600   1.00
H2       0.84077    0.64022    0.65079   1.00
H2       0.48087    0.46598    0.76725   1.00
H2       0.77024    0.52898    0.67170   1.00
H2       0.54690    0.42082    0.74599   1.00
H2       0.77611    0.57917    0.69281   1.00
H2       0.54382    0.46751    0.72510   1.00
H2       0.69528    0.51488    0.68424   1.00
H2       0.62314    0.47947    0.73355   1.00
H2       0.69972    0.60270    0.63483   1.00
H2       0.62365    0.56356    0.78333   1.00
H2       0.73060    0.54555    0.63787   1.00
H2       0.58858    0.47500    0.77997   1.00
H2       0.65220    0.52685    0.64889   1.00
H2       0.66809    0.53221    0.76904   1.00
C4       0.12657    0.30833    0.70133   1.00
C4       0.15245    0.35975    0.71668   1.00
C3       0.13438    0.24973    0.70230   1.00
C3       0.18150    0.35273    0.73506   1.00
C3       0.09149    0.31496    0.68422   1.00
C3       0.14949    0.42081    0.71382   1.00
C2       0.07135    0.20264    0.67079   1.00
C2       0.20784    0.46513    0.74731   1.00
C3       0.10737    0.19828    0.68757   1.00
C3       0.20868    0.40387    0.74988   1.00
C3       0.06443    0.26123    0.66961   1.00
C3       0.17808    0.47183    0.72924   1.00
H1       0.16058    0.24258    0.71364   1.00
H1       0.18338    0.30990    0.73846   1.00
C5       0.08452    0.37418    0.68197   1.00
C5       0.11826    0.42957    0.69602   1.00
H1       0.11452    0.15717    0.68919   1.00
H1       0.22917    0.39581    0.76277   1.00
H1       0.03877    0.26388    0.65731   1.00
H1       0.17736    0.51613    0.72769   1.00
C6       0.04111    0.37714    0.66498   1.00
C6       0.12198    0.49727    0.69218   1.00
H2       -0.00591   0.32817    0.66395   1.00
H2       0.17340    0.53841    0.69551   1.00
H2       0.02185    0.41127    0.66859   1.00
H2       0.11754    0.50532    0.67613   1.00
C6       0.07932    0.39876    0.64411   1.00
C6       0.06689    0.50570    0.70419   1.00
H2       0.10722    0.37150    0.64172   1.00
H2       0.06416    0.48817    0.71979   1.00
C6       0.03556    0.38900    0.62469   1.00
C6       0.07519    0.57858    0.70500   1.00
H2       0.11843    0.45253    0.64519   1.00
H2       0.01718    0.47079    0.69755   1.00
C6       -0.01422   0.31250    0.62018   1.00
C6       0.13952    0.62917    0.71714   1.00
C6       -0.00541   0.42675    0.62654   1.00
C6       0.07868    0.60755    0.68346   1.00
C6       0.08433    0.41925    0.60624   1.00
C6       0.01220    0.57363    0.71598   1.00
H2       0.01304    0.28418    0.61911   1.00
H2       0.13914    0.60966    0.73232   1.00
H2       -0.05271   0.28894    0.63199   1.00
H2       0.18610    0.63833    0.70958   1.00
H2       -0.04104   0.30604    0.60588   1.00
H2       0.14229    0.67844    0.71882   1.00
H2       -0.03186   0.42371    0.61240   1.00
H2       0.07953    0.65613    0.68417   1.00
H2       -0.04383   0.40432    0.63844   1.00
H2       0.12469    0.61645    0.67556   1.00
H2       0.02829    0.48047    0.63013   1.00
H2       0.03464    0.57221    0.67445   1.00
H2       0.11405    0.39380    0.60412   1.00
H2       0.00777    0.55406    0.73138   1.00
H2       0.05605    0.41323    0.59225   1.00
H2       0.01586    0.62347    0.71705   1.00
H2       0.11992    0.47359    0.60833   1.00
H2       -0.03482   0.53963    0.70789   1.00
C4       0.18133    0.87323    0.70139   1.00
C4       0.20683    0.84741    0.71677   1.00
C3       0.11377    0.86256    0.70182   1.00
C3       0.16921    0.81544    0.73470   1.00
C3       0.22430    0.91120    0.68480   1.00
C3       0.27240    0.85344    0.71441   1.00
C2       0.13080    0.92826    0.67081   1.00
C2       0.25688    0.79219    0.74743   1.00
C3       0.08926    0.88946    0.68707   1.00
C3       0.19321    0.78833    0.74954   1.00
C3       0.19752    0.93805    0.67016   1.00
C3       0.29482    0.82483    0.72981   1.00
H1       0.07959    0.83426    0.71276   1.00
H1       0.12326    0.81126    0.73775   1.00
C5       0.29183    0.92118    0.68309   1.00
C5       0.31385    0.88765    0.69709   1.00
H1       0.04013    0.88018    0.68829   1.00
H1       0.16351    0.76566    0.76208   1.00
H1       0.22668    0.96571    0.65822   1.00
H1       0.34095    0.82770    0.72860   1.00
C6       0.33917    0.96748    0.66669   1.00
C6       0.37980    0.88728    0.69371   1.00
H2       0.33518    1.01343    0.66592   1.00
H2       0.37123    0.83623    0.69667   1.00
H2       0.39241    0.98826    0.67081   1.00
H2       0.39418    0.89391    0.67779   1.00
C6       0.32632    0.93171    0.64550   1.00
C6       0.44082    0.94258    0.70649   1.00
H2       0.27152    0.90229    0.64254   1.00
H2       0.42380    0.94289    0.72199   1.00
C6       0.36128    0.97807    0.62659   1.00
C6       0.50704    0.93724    0.70773   1.00
H2       0.34293    0.89405    0.64646   1.00
H2       0.45445    0.99250    0.70025   1.00
C6       0.33228    1.02600    0.62218   1.00
C6       0.49453    0.87248    0.71940   1.00
C6       0.43962    1.02137    0.62927   1.00
C6       0.53567    0.93731    0.68639   1.00
C6       0.34667    0.93164    0.60774   1.00
C6       0.56223    1.00012    0.71950   1.00
H2       0.27687    0.99704    0.62054   1.00
H2       0.47323    0.87034    0.73443   1.00
H2       0.34445    1.06296    0.63431   1.00
H2       0.45926    0.82615    0.71130   1.00
H2       0.35349    1.05466    0.60819   1.00
H2       0.54193    0.87164    0.72141   1.00
H2       0.46395    1.04978    0.61546   1.00
H2       0.58437    0.93850    0.68744   1.00
H2       0.45286    1.05829    0.64149   1.00
H2       0.50075    0.89159    0.67795   1.00
H2       0.46116    0.98894    0.63281   1.00
H2       0.54360    0.98168    0.67769   1.00
H2       0.29191    0.90040    0.60505   1.00
H2       0.54481    1.00209    0.73480   1.00
H2       0.36972    0.96177    0.59409   1.00
H2       0.60943    0.99847    0.72089   1.00
H2       0.36718    0.89748    0.60977   1.00
H2       0.57432    1.04750    0.71178   1.00
