data_IRMOF10_interpen_symm_ligand11lp_label_l_1.

_audit_creation_method             'generated by an auxiliary program of Tobunporous'

_symmetry_space_group_name_H-M     'P 1'
_symmetry_Int_Tables_number        1
_symmetry_cell_setting             triclinic

_cell_length_a                    22.6523
_cell_length_b                    22.6523
_cell_length_c                    65.9502
_cell_angle_alpha                 90.0000
_cell_angle_beta                  90.0000
_cell_angle_gamma                 120.0000

loop_
_atom_site_label
_atom_site_fract_x
_atom_site_fract_y
_atom_site_fract_z
_atom_site_occupancy
O1       0.00000    -0.00000   0.62500   1.00
Zn1      0.00000    -0.00000   0.59589   1.00
Zn1      0.94848    1.04288    0.63392   1.00
Zn1      0.09439    0.05152    0.63392   1.00
Zn1      -0.04288   0.90561    0.63392   1.00
O2       0.93860    0.02610    0.58587   1.00
O2       0.08750    0.06140    0.58587   1.00
O2       -0.02610   0.91250    0.58587   1.00
O2       0.91305    0.07161    0.61181   1.00
O2       0.00462    0.12022    0.65110   1.00
O2       0.87413    0.98074    0.65071   1.00
O2       0.15856    0.08695    0.61181   1.00
O2       0.10660    0.12587    0.65071   1.00
O2       0.11559    0.99538    0.65110   1.00
O2       -0.07161   0.84144    0.61181   1.00
O2       0.87978    0.88441    0.65110   1.00
O2       0.01926    0.89340    0.65071   1.00
C1       0.91390    0.06020    0.59358   1.00
C1       0.14630    0.08610    0.59358   1.00
C1       -0.06020   0.85370    0.59358   1.00
C1       0.06663    0.14397    0.65673   1.00
C1       0.85603    0.92267    0.65673   1.00
C1       0.07733    0.93337    0.65673   1.00
O1       -0.00000   0.00000    0.87500   1.00
Zn1      -0.00000   0.00000    0.90411   1.00
Zn1      1.04288    0.94848    0.86608   1.00
Zn1      0.05152    0.09439    0.86608   1.00
Zn1      0.90561    -0.04288   0.86608   1.00
O2       0.02610    0.93860    0.91413   1.00
O2       0.06140    0.08750    0.91413   1.00
O2       0.91250    -0.02610   0.91413   1.00
O2       0.07161    0.91305    0.88819   1.00
O2       0.12022    0.00462    0.84890   1.00
O2       0.98074    0.87413    0.84929   1.00
O2       0.08695    0.15856    0.88819   1.00
O2       0.12587    0.10660    0.84929   1.00
O2       0.99538    0.11559    0.84890   1.00
O2       0.84144    -0.07161   0.88819   1.00
O2       0.88441    0.87978    0.84890   1.00
O2       0.89340    0.01926    0.84929   1.00
C1       0.06020    0.91390    0.90642   1.00
C1       0.08610    0.14630    0.90642   1.00
C1       0.85370    -0.06020   0.90642   1.00
C1       0.14397    0.06663    0.84327   1.00
C1       0.92267    0.85603    0.84327   1.00
C1       0.93337    0.07733    0.84327   1.00
O1       0.00000    0.00000    0.37500   1.00
Zn1      0.00000    0.00000    0.40411   1.00
Zn1      0.05152    -0.04288   0.36608   1.00
Zn1      0.90561    0.94848    0.36608   1.00
Zn1      1.04288    0.09439    0.36608   1.00
O2       0.06140    -0.02610   0.41413   1.00
O2       0.91250    0.93860    0.41413   1.00
O2       0.02610    0.08750    0.41413   1.00
O2       0.08695    -0.07161   0.38819   1.00
O2       0.99538    0.87978    0.34890   1.00
O2       0.12587    0.01926    0.34929   1.00
O2       0.84144    0.91305    0.38819   1.00
O2       0.89340    0.87413    0.34929   1.00
O2       0.88441    0.00462    0.34890   1.00
O2       0.07161    0.15856    0.38819   1.00
O2       0.12022    0.11559    0.34890   1.00
O2       0.98074    0.10660    0.34929   1.00
C1       0.08610    -0.06020   0.40642   1.00
C1       0.85370    0.91390    0.40642   1.00
C1       0.06020    0.14630    0.40642   1.00
C1       0.93337    0.85603    0.34327   1.00
C1       0.14397    0.07733    0.34327   1.00
C1       0.92267    0.06663    0.34327   1.00
O1       0.00000    0.00000    0.12500   1.00
Zn1      0.00000    0.00000    0.09589   1.00
Zn1      -0.04288   0.05152    0.13392   1.00
Zn1      0.94848    0.90561    0.13392   1.00
Zn1      0.09439    1.04288    0.13392   1.00
O2       -0.02610   0.06140    0.08587   1.00
O2       0.93860    0.91250    0.08587   1.00
O2       0.08750    0.02610    0.08587   1.00
O2       -0.07161   0.08695    0.11181   1.00
O2       0.87978    0.99538    0.15110   1.00
O2       0.01926    0.12587    0.15071   1.00
O2       0.91305    0.84144    0.11181   1.00
O2       0.87413    0.89340    0.15071   1.00
O2       0.00462    0.88441    0.15110   1.00
O2       0.15856    0.07161    0.11181   1.00
O2       0.11559    0.12022    0.15110   1.00
O2       0.10660    0.98074    0.15071   1.00
C1       -0.06020   0.08610    0.09358   1.00
C1       0.91390    0.85370    0.09358   1.00
C1       0.14630    0.06020    0.09358   1.00
C1       0.85603    0.93337    0.15673   1.00
C1       0.07733    0.14397    0.15673   1.00
C1       0.06663    0.92267    0.15673   1.00
O1       0.66667    0.33333    0.95833   1.00
Zn1      0.66667    0.33333    0.92922   1.00
Zn1      0.61515    0.37621    0.96725   1.00
Zn1      0.76106    0.38485    0.96725   1.00
Zn1      -0.37621   0.23894    0.96725   1.00
O2       0.60527    0.35943    0.91920   1.00
O2       0.75417    0.39473    0.91920   1.00
O2       0.64057    0.24583    0.91920   1.00
O2       0.57972    0.40494    0.94514   1.00
O2       0.67129    0.45355    0.98443   1.00
O2       0.54080    0.31407    0.98404   1.00
O2       0.82523    0.42028    0.94514   1.00
O2       0.77327    0.45920    0.98404   1.00
O2       -0.21774   0.32871    0.98443   1.00
O2       0.59506    0.17477    0.94514   1.00
O2       0.54645    0.21774    0.98443   1.00
O2       -0.31407   0.22673    0.98404   1.00
C1       0.58057    0.39353    0.92691   1.00
C1       0.81297    0.41943    0.92691   1.00
C1       0.60647    0.18703    0.92691   1.00
C1       0.73330    0.47730    0.99006   1.00
C1       0.52270    0.25600    0.99006   1.00
C1       -0.25600   0.26670    0.99006   1.00
O1       0.66667    0.33333    0.20833   1.00
Zn1      0.66667    0.33333    0.23744   1.00
Zn1      0.70954    0.28182    0.19942   1.00
Zn1      0.71818    0.42773    0.19942   1.00
Zn1      0.57227    0.29046    0.19942   1.00
O2       0.69277    0.27193    0.24746   1.00
O2       0.72807    0.42083    0.24746   1.00
O2       0.57917    0.30723    0.24746   1.00
O2       0.73828    0.24638    0.22152   1.00
O2       0.78688    0.33796    0.18224   1.00
O2       0.64740    0.20747    0.18263   1.00
O2       0.75362    0.49189    0.22152   1.00
O2       0.79253    0.43994    0.18263   1.00
O2       0.66204    0.44893    0.18224   1.00
O2       0.50811    0.26172    0.22152   1.00
O2       0.55107    0.21312    0.18224   1.00
O2       0.56006    0.35260    0.18263   1.00
C1       0.72687    0.24723    0.23975   1.00
C1       0.75277    0.47963    0.23975   1.00
C1       0.52037    0.27313    0.23975   1.00
C1       0.81063    0.39997    0.17661   1.00
C1       0.58933    0.18937    0.17661   1.00
C1       0.60003    0.41067    0.17661   1.00
O1       0.66667    0.33333    0.70833   1.00
Zn1      0.66667    0.33333    0.73744   1.00
Zn1      0.71818    0.29046    0.69942   1.00
Zn1      0.57227    0.28182    0.69942   1.00
Zn1      0.70954    0.42773    0.69942   1.00
O2       0.72807    0.30723    0.74746   1.00
O2       0.57917    0.27193    0.74746   1.00
O2       0.69277    0.42083    0.74746   1.00
O2       0.75362    0.26172    0.72152   1.00
O2       0.66204    0.21312    0.68224   1.00
O2       0.79253    0.35260    0.68263   1.00
O2       0.50811    0.24638    0.72152   1.00
O2       0.56006    0.20747    0.68263   1.00
O2       0.55107    0.33796    0.68224   1.00
O2       0.73828    0.49189    0.72152   1.00
O2       0.78688    0.44893    0.68224   1.00
O2       0.64740    0.43994    0.68263   1.00
C1       0.75277    0.27313    0.73975   1.00
C1       0.52037    0.24723    0.73975   1.00
C1       0.72687    0.47963    0.73975   1.00
C1       0.60003    0.18937    0.67661   1.00
C1       0.81063    0.41067    0.67661   1.00
C1       0.58933    0.39997    0.67661   1.00
O1       0.66667    0.33333    0.45833   1.00
Zn1      0.66667    0.33333    0.42922   1.00
Zn1      -0.37621   0.38485    0.46725   1.00
Zn1      0.61515    0.23894    0.46725   1.00
Zn1      0.76106    0.37621    0.46725   1.00
O2       0.64057    0.39473    0.41920   1.00
O2       0.60527    0.24583    0.41920   1.00
O2       0.75417    0.35943    0.41920   1.00
O2       0.59506    0.42028    0.44514   1.00
O2       0.54645    0.32871    0.48443   1.00
O2       -0.31407   0.45920    0.48404   1.00
O2       0.57972    0.17477    0.44514   1.00
O2       0.54080    0.22673    0.48404   1.00
O2       0.67129    0.21774    0.48443   1.00
O2       0.82523    0.40494    0.44514   1.00
O2       -0.21774   0.45355    0.48443   1.00
O2       0.77327    0.31407    0.48404   1.00
C1       0.60647    0.41943    0.42691   1.00
C1       0.58057    0.18703    0.42691   1.00
C1       0.81297    0.39353    0.42691   1.00
C1       0.52270    0.26670    0.49006   1.00
C1       -0.25600   0.47730    0.49006   1.00
C1       0.73330    0.25600    0.49006   1.00
O1       0.33333    0.66667    0.29167   1.00
Zn1      0.33333    0.66667    0.26256   1.00
Zn1      0.28182    0.70954    0.30058   1.00
Zn1      0.42773    0.71818    0.30058   1.00
Zn1      0.29046    0.57227    0.30058   1.00
O2       0.27193    0.69277    0.25254   1.00
O2       0.42083    0.72807    0.25254   1.00
O2       0.30723    0.57917    0.25254   1.00
O2       0.24638    0.73828    0.27848   1.00
O2       0.33796    0.78688    0.31776   1.00
O2       0.20747    0.64740    0.31737   1.00
O2       0.49189    0.75362    0.27848   1.00
O2       0.43994    0.79253    0.31737   1.00
O2       0.44893    0.66204    0.31776   1.00
O2       0.26172    0.50811    0.27848   1.00
O2       0.21312    0.55107    0.31776   1.00
O2       0.35260    0.56006    0.31737   1.00
C1       0.24723    0.72687    0.26025   1.00
C1       0.47963    0.75277    0.26025   1.00
C1       0.27313    0.52037    0.26025   1.00
C1       0.39997    0.81063    0.32339   1.00
C1       0.18937    0.58933    0.32339   1.00
C1       0.41067    0.60003    0.32339   1.00
O1       0.33333    0.66667    0.54167   1.00
Zn1      0.33333    0.66667    0.57078   1.00
Zn1      0.37621    0.61515    0.53275   1.00
Zn1      0.38485    0.76106    0.53275   1.00
Zn1      0.23894    -0.37621   0.53275   1.00
O2       0.35943    0.60527    0.58080   1.00
O2       0.39473    0.75417    0.58080   1.00
O2       0.24583    0.64057    0.58080   1.00
O2       0.40494    0.57972    0.55486   1.00
O2       0.45355    0.67129    0.51557   1.00
O2       0.31407    0.54080    0.51596   1.00
O2       0.42028    0.82523    0.55486   1.00
O2       0.45920    0.77327    0.51596   1.00
O2       0.32871    -0.21774   0.51557   1.00
O2       0.17477    0.59506    0.55486   1.00
O2       0.21774    0.54645    0.51557   1.00
O2       0.22673    -0.31407   0.51596   1.00
C1       0.39353    0.58057    0.57309   1.00
C1       0.41943    0.81297    0.57309   1.00
C1       0.18703    0.60647    0.57309   1.00
C1       0.47730    0.73330    0.50994   1.00
C1       0.25600    0.52270    0.50994   1.00
C1       0.26670    -0.25600   0.50994   1.00
O1       0.33333    0.66667    0.04167   1.00
Zn1      0.33333    0.66667    0.07078   1.00
Zn1      0.38485    -0.37621   0.03275   1.00
Zn1      0.23894    0.61515    0.03275   1.00
Zn1      0.37621    0.76106    0.03275   1.00
O2       0.39473    0.64057    0.08080   1.00
O2       0.24583    0.60527    0.08080   1.00
O2       0.35943    0.75417    0.08080   1.00
O2       0.42028    0.59506    0.05486   1.00
O2       0.32871    0.54645    0.01557   1.00
O2       0.45920    -0.31407   0.01596   1.00
O2       0.17477    0.57972    0.05486   1.00
O2       0.22673    0.54080    0.01596   1.00
O2       0.21774    0.67129    0.01557   1.00
O2       0.40494    0.82523    0.05486   1.00
O2       0.45355    -0.21774   0.01557   1.00
O2       0.31407    0.77327    0.01596   1.00
C1       0.41943    0.60647    0.07309   1.00
C1       0.18703    0.58057    0.07309   1.00
C1       0.39353    0.81297    0.07309   1.00
C1       0.26670    0.52270    0.00994   1.00
C1       0.47730    -0.25600   0.00994   1.00
C1       0.25600    0.73330    0.00994   1.00
O1       0.33333    0.66667    0.79167   1.00
Zn1      0.33333    0.66667    0.76256   1.00
Zn1      0.29046    0.71818    0.80058   1.00
Zn1      0.28182    0.57227    0.80058   1.00
Zn1      0.42773    0.70954    0.80058   1.00
O2       0.30723    0.72807    0.75254   1.00
O2       0.27193    0.57917    0.75254   1.00
O2       0.42083    0.69277    0.75254   1.00
O2       0.26172    0.75362    0.77848   1.00
O2       0.21312    0.66204    0.81776   1.00
O2       0.35260    0.79253    0.81737   1.00
O2       0.24638    0.50811    0.77848   1.00
O2       0.20747    0.56006    0.81737   1.00
O2       0.33796    0.55107    0.81776   1.00
O2       0.49189    0.73828    0.77848   1.00
O2       0.44893    0.78688    0.81776   1.00
O2       0.43994    0.64740    0.81737   1.00
C1       0.27313    0.75277    0.76025   1.00
C1       0.24723    0.52037    0.76025   1.00
C1       0.47963    0.72687    0.76025   1.00
C1       0.18937    0.60003    0.82339   1.00
C1       0.41067    0.81063    0.82339   1.00
C1       0.39997    0.58933    0.82339   1.00
C5       0.11319    0.96018    0.55415   1.00
H2       0.08552    0.98874    0.55611   1.00
H2       0.12586    0.96366    0.53775   1.00
C5       0.17912    0.99395    0.56705   1.00
H2       0.22053    1.03896    0.55906   1.00
H2       0.19638    0.95661    0.57011   1.00
O_3      -0.07985   0.60670    0.54649   1.00
C4       -0.13217   0.69617    0.54829   1.00
C3c      -0.07625   0.76174    0.54510   1.00
H1       -0.04992   0.77420    0.53070   1.00
C3d      -0.16638   0.68128    0.56706   1.00
C3       -0.05283   0.81176    0.56043   1.00
O2       -0.00330   0.87702    0.55540   1.00
C3       -0.14239   0.73056    0.58249   1.00
H1       -0.16877   0.71602    0.59687   1.00
C2       -0.08545   0.79688    0.57960   1.00
C5       -0.10951   0.55405    0.56105   1.00
H2       -0.13174   0.50247    0.55405   1.00
H2       -0.15064   0.55653    0.56966   1.00
C5       -0.05367   0.56341    0.57570   1.00
H2       -0.03015   0.61566    0.58227   1.00
H2       -0.01320   0.56020    0.56697   1.00
C5       -0.08215   0.50946    0.59253   1.00
H2       -0.10614   0.45714    0.58607   1.00
H2       -0.12087   0.51416    0.60170   1.00
H2       -0.04034   0.51620    0.60283   1.00
C5       -0.28106   0.60841    0.56484   1.00
C5       0.06190    0.88633    0.55984   1.00
H2       -0.28131   0.61481    0.54812   1.00
H2       -0.29235   0.64589    0.57231   1.00
H2       0.07127    0.85039    0.55067   1.00
H2       0.06762    0.87687    0.57619   1.00
H2       0.17091    1.01326    0.58178   1.00
H2       -0.39910   0.50922    0.54256   1.00
H2       -0.41981   0.55462    0.56142   1.00
C2       -0.20101   0.53958    0.50312   1.00
C3       -0.22525   0.58617    0.50307   1.00
O2       -0.28267   0.57230    0.49210   1.00
C3       -0.15146   0.54822    0.51770   1.00
H1       -0.13059   0.51450    0.51781   1.00
C3a      -0.20115   0.63858    0.51772   1.00
H1       -0.22306   0.67141    0.51821   1.00
C3b      -0.12922   0.59904    0.53266   1.00
C4       -0.15414   0.64466    0.53278   1.00
O_3      -0.21840   0.61605    0.57150   1.00
C5       -0.26403   0.61028    0.47392   1.00
H2       -0.23447   0.66623    0.47702   1.00
C5       -0.33019   0.59302    0.46286   1.00
H2       -0.23264   0.59641    0.46414   1.00
H2       -0.35169   0.62294    0.46987   1.00
H2       -0.36744   0.53829    0.46585   1.00
C5       -0.32012   0.60677    0.43985   1.00
H2       -0.27896   0.66016    0.43716   1.00
H2       -0.36789   0.59913    0.43264   1.00
H2       -0.30687   0.57088    0.43217   1.00
C5       -0.33672   0.53657    0.57036   1.00
H2       -0.34434   0.53397    0.58710   1.00
H2       -0.31822   0.50066    0.56653   1.00
C5       -0.40394   0.51585    0.55914   1.00
H2       -0.44512   0.46634    0.56509   1.00
C5       0.12410    0.26245    0.58027   1.00
H2       0.07662    0.21376    0.57699   1.00
H2       0.13106    0.29677    0.56733   1.00
C5       0.11549    0.29295    0.60031   1.00
H2       0.08713    0.32066    0.59768   1.00
H2       0.16636    0.32889    0.60687   1.00
O_3      0.43351    0.28217    0.55735   1.00
C4       0.30351    0.17172    0.54820   1.00
C3c      0.25765    0.19557    0.55128   1.00
H1       0.26073    0.23600    0.54181   1.00
C3d      0.29800    0.11833    0.56050   1.00
C3       0.20798    0.16857    0.56670   1.00
O2       0.15972    0.18854    0.56719   1.00
C3       0.24945    0.09224    0.57612   1.00
H1       0.24873    0.05301    0.58563   1.00
C2       0.20317    0.11628    0.57959   1.00
C5       0.47484    0.26196    0.56786   1.00
H2       0.52464    0.27937    0.56012   1.00
H2       0.44861    0.20536    0.56945   1.00
C5       0.48864    0.29401    0.58883   1.00
H2       0.43885    0.27816    0.59635   1.00
H2       0.51539    0.35051    0.58706   1.00
C5       0.53144    0.27259    0.60159   1.00
H2       0.58105    0.28784    0.59409   1.00
H2       0.50375    0.21641    0.60395   1.00
H2       0.54227    0.29770    0.61669   1.00
C5       0.32368    0.04511    0.54423   1.00
C5       0.18115    0.24481    0.58040   1.00
H2       0.32077    0.06467    0.52901   1.00
H2       0.27283    0.00044    0.54797   1.00
H2       0.22971    0.28895    0.57481   1.00
H2       0.19047    0.23331    0.59620   1.00
H2       0.08509    0.25205    0.61162   1.00
H2       0.38336    0.01240    0.51042   1.00
H2       0.31547    -0.06292   0.52269   1.00
C2       0.46051    0.25692    0.50310   1.00
C3       0.39463    0.20394    0.49789   1.00
O2       0.38420    0.16775    0.48014   1.00
C3       0.47193    0.28290    0.52311   1.00
H1       0.52131    0.32463    0.52744   1.00
C3a      0.34275    0.17719    0.51272   1.00
H1       0.29370    0.13406    0.50881   1.00
C3b      0.42085    0.25473    0.53800   1.00
C4       0.35568    0.20136    0.53288   1.00
O_3      0.34512    0.09658    0.55911   1.00
C5       0.35508    0.19028    0.46529   1.00
H2       0.30508    0.18346    0.47046   1.00
C5       0.34410    0.14711    0.44629   1.00
H2       0.38971    0.24514    0.46161   1.00
H2       0.29683    0.09693    0.44838   1.00
H2       0.38710    0.13657    0.44540   1.00
C5       0.33974    0.18196    0.42670   1.00
H2       0.30020    0.19696    0.42847   1.00
H2       0.32606    0.14682    0.41350   1.00
H2       0.38983    0.22802    0.42301   1.00
C5       0.37624    0.02195    0.54350   1.00
H2       0.37075    -0.00811   0.55745   1.00
H2       0.42798    0.06808    0.54402   1.00
C5       0.36874    -0.02004   0.52432   1.00
H2       0.40294    -0.04196   0.52532   1.00
C5       0.75877    0.06984    0.63315   1.00
H2       0.74950    0.01693    0.63208   1.00
H2       0.70788    0.06560    0.63185   1.00
C5       0.79145    0.10074    0.65393   1.00
H2       0.75187    0.08360    0.66600   1.00
H2       0.81894    0.15742    0.65309   1.00
O_3      0.86623    0.26980    0.54597   1.00
C4       0.82741    0.13090    0.54821   1.00
C3c      0.79545    0.10808    0.56712   1.00
H1       0.74835    0.10765    0.57021   1.00
C3d      0.88823    0.13012    0.54438   1.00
C3       0.82394    0.08647    0.58239   1.00
O2       0.78566    0.05709    0.59953   1.00
C3       0.91741    0.10987    0.55969   1.00
H1       0.96535    0.11243    0.55631   1.00
C2       0.88615    0.08735    0.57898   1.00
C5       0.93078    0.30991    0.53688   1.00
H2       0.92888    0.34010    0.52379   1.00
H2       0.95184    0.27753    0.53140   1.00
C5       0.97828    0.35906    0.55286   1.00
H2       0.97870    0.32898    0.56617   1.00
H2       0.95710    0.39154    0.55808   1.00
C5       1.05057    0.40318    0.54441   1.00
H2       1.05046    0.43300    0.53102   1.00
H2       1.07267    0.37097    0.53984   1.00
H2       1.08417    0.43980    0.55616   1.00
C5       0.90012    0.10562    0.51159   1.00
C5       0.80261    0.10723    0.61469   1.00
H2       0.84553    0.08680    0.50807   1.00
H2       0.90587    0.06146    0.51635   1.00
H2       0.79073    0.14688    0.60932   1.00
H2       0.85796    0.13379    0.61877   1.00
H2       0.82786    0.08361    0.65873   1.00
H2       0.86086    0.09181    0.46941   1.00
H2       0.89740    0.03912    0.47634   1.00
C2       0.74741    0.20442    0.50201   1.00
C3       0.72449    0.13402    0.50351   1.00
O2       0.69014    0.09086    0.48757   1.00
C3       0.79435    0.24880    0.51665   1.00
H1       0.81153    0.30272    0.51624   1.00
C3a      0.74994    0.11001    0.51906   1.00
H1       0.73487    0.05655    0.51930   1.00
C3b      0.82122    0.22507    0.53170   1.00
C4       0.79918    0.15522    0.53298   1.00
O_3      0.92438    0.15688    0.52660   1.00
C5       0.61950    0.05409    0.49160   1.00
H2       0.60824    0.02292    0.50570   1.00
C5       0.58537    0.00684    0.47348   1.00
H2       0.59865    0.08918    0.49335   1.00
H2       0.59182    -0.03856   0.47510   1.00
H2       0.61415    0.03434    0.45962   1.00
C5       0.50928    -0.01521   0.47133   1.00
H2       0.48244    -0.03768   0.48584   1.00
H2       0.48494    -0.05389   0.45908   1.00
H2       0.50242    0.02883    0.46711   1.00
C5       0.94208    0.13695    0.49250   1.00
H2       0.99421    0.14491    0.49500   1.00
H2       0.94773    0.18831    0.49030   1.00
C5       0.90883    0.09232    0.47365   1.00
H2       0.94407    0.11298    0.46050   1.00
C5       0.67941    -0.10883   0.86470   1.00
H2       0.71792    -0.05367   0.86417   1.00
H2       0.62897    -0.11176   0.86499   1.00
C5       0.68611    -0.14443   0.84551   1.00
H2       0.65960    -0.13695   0.83239   1.00
H2       0.66358    -0.20005   0.84836   1.00
O_3      0.61076    -0.27152   0.95843   1.00
C4       0.69644    -0.13085   0.95177   1.00
C3c      0.68328    -0.11874   0.93184   1.00
H1       0.63341    -0.12680   0.92794   1.00
C3d      0.76206    -0.11910   0.95661   1.00
C3       0.73354    -0.09713   0.91662   1.00
O2       0.71964    -0.07837   0.89816   1.00
C3       0.81180    -0.09883   0.94140   1.00
H1       0.86062    -0.09280   0.94566   1.00
C2       0.79913    -0.08708   0.92111   1.00
C5       0.64293    -0.30063   0.96966   1.00
H2       0.61322    -0.32804   0.98341   1.00
H2       0.69502    -0.26087   0.97458   1.00
C5       0.64873    -0.35149   0.95598   1.00
H2       0.67676    -0.32451   0.94197   1.00
H2       0.59642    -0.39127   0.95131   1.00
C5       0.68548    -0.38390   0.96681   1.00
H2       0.65802    -0.41053   0.98089   1.00
H2       0.73854    -0.34450   0.97086   1.00
H2       0.68790    -0.42201   0.95674   1.00
C5       0.79703    -0.07880   0.98866   1.00
C5       0.69191    -0.13473   0.88479   1.00
H2       0.75597    -0.06598   0.99069   1.00
H2       0.84359    -0.03280   0.98285   1.00
H2       0.64292    -0.17667   0.89097   1.00
H2       0.72671    -0.15587   0.88242   1.00
H2       0.74067    -0.12238   0.84092   1.00
H2       0.76757    -0.05428   1.02942   1.00
H2       0.85482    0.00476    1.02176   1.00
C2       0.54357    -0.20394   0.99815   1.00
C3       0.58353    -0.13328   0.99436   1.00
O2       0.58628    -0.08676   1.00839   1.00
C3       0.55312    -0.24931   0.98567   1.00
H1       0.52213    -0.30375   0.98784   1.00
C3a      0.63273    -0.10969   0.97875   1.00
H1       0.66557    -0.05534   0.97679   1.00
C3b      0.60359    -0.22560   0.97058   1.00
C4       0.64399    -0.15532   0.96703   1.00
O_3      0.77608    -0.13516   0.97559   1.00
C5       0.54455    -0.06023   1.00217   1.00
H2       0.56111    -0.03420   0.98715   1.00
C5       0.55127    -0.00849   1.01826   1.00
H2       0.49019    -0.10141   1.00102   1.00
H2       0.59970    0.04013    1.01553   1.00
H2       0.55676    -0.02798   1.03325   1.00
C5       0.49021    0.00389    1.01846   1.00
H2       0.48218    0.01808    1.00299   1.00
H2       0.49957    0.04582    1.02913   1.00
H2       0.44258    -0.04236   1.02371   1.00
C5       0.81306    -0.09833   1.00918   1.00
H2       0.86144    -0.09960   1.00783   1.00
H2       0.77208    -0.15118   1.01284   1.00
C5       0.81833    -0.04896   1.02607   1.00
H2       0.83699    -0.06044   1.04029   1.00
C5       0.26208    0.12364    0.91987   1.00
H2       0.21332    0.07622    0.92313   1.00
H2       0.29630    0.13052    0.93283   1.00
C5       0.29264    0.11493    0.89986   1.00
H2       0.32023    0.08647    0.90252   1.00
H2       0.32870    0.16578    0.89330   1.00
O_3      0.28241    0.43340    0.94268   1.00
C4       0.17172    0.30351    0.95180   1.00
C3c      0.19544    0.25754    0.94876   1.00
H1       0.23578    0.26052    0.95825   1.00
C3d      0.11845    0.29812    0.93946   1.00
C3       0.16845    0.20787    0.93334   1.00
O2       0.18828    0.15949    0.93288   1.00
C3       0.09237    0.24957    0.92384   1.00
H1       0.05324    0.24895    0.91430   1.00
C2       0.11629    0.20317    0.92041   1.00
C5       0.26240    0.47483    0.93214   1.00
H2       0.27986    0.52464    0.93987   1.00
H2       0.20581    0.44870    0.93052   1.00
C5       0.29456    0.48855    0.91119   1.00
H2       0.27865    0.43873    0.90368   1.00
H2       0.35104    0.51520    0.91299   1.00
C5       0.27335    0.53145    0.89840   1.00
H2       0.28866    0.58108    0.90588   1.00
H2       0.21718    0.50387    0.89600   1.00
H2       0.29854    0.54223    0.88330   1.00
C5       0.04529    0.32403    0.95567   1.00
C5       0.24461    0.18080    0.91970   1.00
H2       0.06473    0.32107    0.97091   1.00
H2       0.00057    0.27322    0.95192   1.00
H2       0.28878    0.22932    0.92531   1.00
H2       0.23324    0.19016    0.90389   1.00
H2       0.25179    0.08459    0.88852   1.00
H2       0.01257    0.38387    0.98943   1.00
H2       -0.06275   0.31608    0.97713   1.00
C2       0.25694    0.46052    0.99690   1.00
C3       0.20383    0.39469    1.00210   1.00
O2       0.16755    0.38434    1.01983   1.00
C3       0.28303    0.47188    0.97690   1.00
H1       0.32486    0.52120    0.97259   1.00
C3a      0.17707    0.34280    0.98726   1.00
H1       0.13385    0.29380    0.99116   1.00
C3b      0.25486    0.42079    0.96201   1.00
C4       0.20136    0.35568    0.96712   1.00
O_3      0.09684    0.34536    0.94082   1.00
C5       0.18989    0.35513    1.03471   1.00
H2       0.18298    0.30508    1.02955   1.00
C5       0.14663    0.34425    1.05368   1.00
H2       0.24474    0.38967    1.03841   1.00
H2       0.09641    0.29705    1.05157   1.00
H2       0.13621    0.38734    1.05454   1.00
C5       0.18131    0.33981    1.07329   1.00
H2       0.19620    0.30018    1.07155   1.00
H2       0.14610    0.32621    1.08647   1.00
H2       0.22741    0.38985    1.07700   1.00
C5       0.02229    0.37670    0.95636   1.00
H2       -0.00766   0.37128    0.94239   1.00
H2       0.06849    0.42840    0.95586   1.00
C5       -0.01979   0.36931    0.97551   1.00
H2       -0.04158   0.40360    0.97448   1.00
C5       0.06978    0.75873    0.86685   1.00
H2       0.01688    0.74947    0.86792   1.00
H2       0.06552    0.70783    0.86816   1.00
C5       0.10067    0.79140    0.84608   1.00
H2       0.08351    0.75181    0.83401   1.00
H2       0.15735    0.81887    0.84691   1.00
O_3      0.26980    0.86620    0.95402   1.00
C4       0.13090    0.82741    0.95179   1.00
C3c      0.10806    0.79544    0.93288   1.00
H1       0.10762    0.74833    0.92979   1.00
C3d      0.13014    0.88824    0.95562   1.00
C3       0.08645    0.82393    0.91761   1.00
O2       0.05706    0.78565    0.90048   1.00
C3       0.10989    0.91742    0.94031   1.00
H1       0.11246    0.96537    0.94369   1.00
C2       0.08735    0.88615    0.92102   1.00
C5       0.30992    0.93076    0.96311   1.00
H2       0.34011    0.92885    0.97620   1.00
H2       0.27756    0.95183    0.96859   1.00
C5       0.35907    0.97825    0.94713   1.00
H2       0.32898    0.97866    0.93382   1.00
H2       0.39154    0.95705    0.94191   1.00
C5       0.40321    1.05053    0.95557   1.00
H2       0.43303    1.05043    0.96896   1.00
H2       0.37100    1.07265    0.96014   1.00
H2       0.43982    1.08413    0.94382   1.00
C5       0.10566    0.90016    0.98841   1.00
C5       0.10719    0.80257    0.88532   1.00
H2       0.08683    0.84557    0.99193   1.00
H2       0.06151    0.90591    0.98365   1.00
H2       0.14683    0.79068    0.89068   1.00
H2       0.13375    0.85793    0.88123   1.00
H2       0.08355    0.82781    0.84127   1.00
H2       0.09187    0.86091    1.03059   1.00
H2       0.03919    0.89747    1.02366   1.00
C2       0.20442    0.74741    0.99799   1.00
C3       0.13402    0.72450    0.99649   1.00
O2       0.09087    0.69017    1.01243   1.00
C3       0.24880    0.79434    0.98335   1.00
H1       0.30271    0.81151    0.98376   1.00
C3a      0.11001    0.74995    0.98095   1.00
H1       0.05655    0.73490    0.98070   1.00
C3b      0.22506    0.82120    0.96830   1.00
C4       0.15522    0.79918    0.96702   1.00
O_3      0.15691    0.92439    0.97339   1.00
C5       0.05409    0.61953    1.00841   1.00
H2       0.02290    0.60826    0.99431   1.00
C5       0.00684    0.58542    1.02654   1.00
H2       0.08916    0.59867    1.00666   1.00
H2       -0.03855   0.59187    1.02491   1.00
H2       0.03436    0.61420    1.04039   1.00
C5       -0.01522   0.50932    1.02869   1.00
H2       -0.03770   0.48247    1.01418   1.00
H2       -0.05389   0.48499    1.04094   1.00
H2       0.02881    0.50246    1.03290   1.00
C5       0.13701    0.94212    1.00750   1.00
H2       0.14498    0.99426    1.00500   1.00
H2       0.18837    0.94776    1.00969   1.00
C5       0.09239    0.90890    1.02634   1.00
H2       0.11307    0.94414    1.03950   1.00
C5       -0.02983   0.00977    0.45659   1.00
H2       -0.06969   0.00556    0.44592   1.00
H2       -0.04978   0.00893    0.47205   1.00
C5       -0.01869   -0.05176   0.45362   1.00
H2       -0.05836   -0.09741   0.46183   1.00
H2       0.03252    -0.03910   0.45939   1.00
O_3      0.24653    0.33323    0.47498   1.00
C4       0.13113    0.30420    0.45158   1.00
C3c      0.08270    0.23593    0.45573   1.00
H1       0.06204    0.22143    0.47086   1.00
C3d      0.15669    0.32221    0.43169   1.00
C3       0.06093    0.18532    0.44061   1.00
O2       0.00749    0.12147    0.44514   1.00
C3       0.13609    0.27171    0.41670   1.00
H1       0.15889    0.28753    0.40185   1.00
C2       0.08771    0.20230    0.42069   1.00
C5       0.30832    0.37431    0.46456   1.00
H2       0.34341    0.42124    0.47322   1.00
H2       0.29883    0.39006    0.44943   1.00
C5       0.34303    0.33231    0.46158   1.00
H2       0.30722    0.28449    0.45343   1.00
H2       0.35283    0.31741    0.47678   1.00
C5       0.40975    0.37248    0.44967   1.00
H2       0.44557    0.42054    0.45766   1.00
H2       0.39976    0.38533    0.43423   1.00
H2       0.43514    0.34153    0.44804   1.00
C5       0.17931    0.42826    0.42205   1.00
C5       0.03278    0.07955    0.45236   1.00
H2       0.15005    0.43249    0.43497   1.00
H2       0.14473    0.40731    0.40867   1.00
H2       0.06260    0.10136    0.46658   1.00
H2       0.06721    0.07455    0.44119   1.00
H2       -0.02301   -0.06656   0.43728   1.00
H2       0.20133    0.56205    0.43196   1.00
H2       0.16942    0.53561    0.40632   1.00
C2       0.20506    0.45896    0.49741   1.00
C3       0.14501    0.44275    0.48660   1.00
O2       0.11927    0.48658    0.48685   1.00
C3       0.23765    0.42072    0.49340   1.00
H1       0.28270    0.43068    0.50179   1.00
C3a      0.12011    0.39062    0.47184   1.00
H1       0.07633    0.38147    0.46289   1.00
C3b      0.21400    0.37041    0.47827   1.00
C4       0.15490    0.35507    0.46731   1.00
O_3      0.20819    0.38763    0.42719   1.00
C5       0.06319    0.46210    0.50020   1.00
H2       0.02154    0.41051    0.49554   1.00
C5       0.03700    0.51264    0.49937   1.00
H2       0.07876    0.45904    0.51603   1.00
H2       0.00520    0.50192    0.48549   1.00
H2       0.08209    0.56454    0.49738   1.00
C5       -0.00381   0.50996    0.51841   1.00
H2       -0.04534   0.45672    0.52106   1.00
H2       -0.02679   0.54310    0.51651   1.00
H2       0.02969    0.52900    0.53211   1.00
C5       0.23761    0.49915    0.41687   1.00
H2       0.25935    0.49666    0.40195   1.00
H2       0.27863    0.51361    0.42837   1.00
C5       0.21438    0.55247    0.41644   1.00
H2       0.25617    0.60176    0.41057   1.00
C5       0.72125    0.71649    0.37525   1.00
H2       0.72512    0.75924    0.36598   1.00
H2       0.66688    0.67571    0.37454   1.00
C5       0.76742    0.69111    0.36601   1.00
H2       0.74156    0.65601    0.35305   1.00
H2       0.78010    0.66382    0.37773   1.00
O_3      0.69636    0.73551    0.48000   1.00
C4       0.69591    0.82820    0.45164   1.00
C3c      0.68633    0.79680    0.43261   1.00
H1       0.63916    0.75037    0.42939   1.00
C3d      0.75736    0.88921    0.45542   1.00
C3       0.73743    0.82399    0.41760   1.00
O2       0.72125    0.79525    0.39857   1.00
C3       0.80885    0.91570    0.44065   1.00
H1       0.85605    0.96126    0.44450   1.00
C2       0.80030    0.88419    0.42141   1.00
C5       0.74530    0.76801    0.49546   1.00
H2       0.72227    0.75425    0.51090   1.00
H2       0.77157    0.82462    0.49388   1.00
C5       0.79758    0.74497    0.49350   1.00
H2       0.81921    0.75698    0.47788   1.00
H2       0.77091    0.68848    0.49529   1.00
C5       0.85428    0.77994    0.50936   1.00
H2       0.83298    0.76854    0.52500   1.00
H2       0.88248    0.83619    0.50714   1.00
H2       0.89118    0.76133    0.50798   1.00
C5       0.74543    0.96431    0.47565   1.00
C5       0.73985    0.74443    0.39687   1.00
H2       0.68906    0.93667    0.47382   1.00
H2       0.76848    1.00519    0.46391   1.00
H2       0.71094    0.70296    0.40812   1.00
H2       0.79542    0.76477    0.39975   1.00
H2       0.81567    0.73443    0.35983   1.00
H2       0.66692    0.99445    0.50404   1.00
H2       0.72730    1.06874    0.48961   1.00
C2       0.54566    0.74392    0.49868   1.00
C3       0.54232    0.78747    0.48398   1.00
O2       0.50244    0.81681    0.48726   1.00
C3       0.59739    0.72654    0.49683   1.00
H1       0.60026    0.69192    0.50753   1.00
C3a      0.59111    0.81380    0.46825   1.00
H1       0.59021    0.85013    0.45780   1.00
C3b      0.64713    0.75453    0.48155   1.00
C4       0.64437    0.79864    0.46713   1.00
O_3      0.77139    0.91928    0.47441   1.00
C5       0.44121    0.78197    0.47612   1.00
H2       0.45143    0.78338    0.45950   1.00
C5       0.40061    0.81812    0.48028   1.00
H2       0.41083    0.72770    0.48101   1.00
H2       0.42174    0.86474    0.47067   1.00
H2       0.41033    0.83584    0.49633   1.00
C5       0.32351    0.77218    0.47644   1.00
H2       0.31508    0.75065    0.46087   1.00
H2       0.29660    0.80179    0.47796   1.00
H2       0.29984    0.72972    0.48773   1.00
C5       0.76312    0.99702    0.49659   1.00
H2       0.81892    1.03394    0.49711   1.00
H2       0.75268    0.95653    0.50795   1.00
C5       0.72204    1.03241    0.50179   1.00
H2       0.74125    1.06160    0.51615   1.00
C5       0.22627    0.13933    0.43102   1.00
H2       0.23953    0.13645    0.41497   1.00
H2       0.27553    0.16629    0.43929   1.00
C5       0.18845    0.18029    0.43229   1.00
H2       0.22526    0.23612    0.43209   1.00
H2       0.15784    0.16715    0.44649   1.00
O_3      0.12499    -0.14708   0.49168   1.00
C4       0.17265    -0.13182   0.45151   1.00
C3c      0.20128    -0.06224   0.44694   1.00
H1       0.24574    -0.02499   0.45515   1.00
C3d      0.11531    -0.17959   0.44044   1.00
C3       0.17270    -0.03952   0.43201   1.00
O2       0.20823    0.02829    0.42667   1.00
C3       0.08596    -0.15705   0.42584   1.00
H1       0.04058    -0.19539   0.41824   1.00
C2       0.11381    -0.08682   0.42118   1.00
C5       0.06189    -0.20746   0.49455   1.00
H2       0.06392    -0.23943   0.50709   1.00
H2       0.04540    -0.23892   0.48045   1.00
C5       0.00940    -0.18693   0.49995   1.00
H2       0.00874    -0.15339   0.48770   1.00
H2       0.02606    -0.15610   0.51415   1.00
C5       -0.06154   -0.24980   0.50265   1.00
H2       -0.06114   -0.28376   0.51477   1.00
H2       -0.07922   -0.27934   0.48827   1.00
H2       -0.09891   -0.23384   0.50703   1.00
C5       0.11238    -0.28040   0.43479   1.00
C5       0.18505    0.06529    0.43824   1.00
H2       0.16677    -0.25887   0.43914   1.00
H2       0.10943    -0.27534   0.41803   1.00
H2       0.19435    0.06180    0.45470   1.00
H2       0.12920    0.04566    0.43628   1.00
H2       0.15403    0.16962    0.41896   1.00
H2       0.15940    -0.37494   0.44372   1.00
H2       0.12723    -0.38354   0.41799   1.00
C2       0.25252    -0.20347   0.49828   1.00
C3       0.27971    -0.19274   0.47848   1.00
O2       0.31913    -0.22055   0.47264   1.00
C3       0.20122    -0.18682   0.50237   1.00
H1       0.18060    -0.19277   0.51749   1.00
C3a      0.25418    -0.16764   0.46326   1.00
H1       0.27277    -0.16340   0.44792   1.00
C3b      0.17441    -0.16394   0.48706   1.00
C4       0.20075    -0.15430   0.46731   1.00
O_3      0.08215    -0.24815   0.44540   1.00
C5       0.38880    -0.17017   0.47279   1.00
H2       0.39924    -0.12746   0.46223   1.00
C5       0.42877    -0.20461   0.46585   1.00
H2       0.40562    -0.14892   0.48833   1.00
H2       0.42588    -0.20880   0.44901   1.00
H2       0.40183    -0.25771   0.47185   1.00
C5       0.50372    -0.16649   0.47293   1.00
H2       0.52828    -0.11221   0.46817   1.00
H2       0.53249    -0.18969   0.46619   1.00
H2       0.50763    -0.16938   0.48977   1.00
C5       0.07356    -0.35568   0.44040   1.00
H2       0.02258    -0.37970   0.43298   1.00
H2       0.06454    -0.35981   0.45709   1.00
C5       0.11263    -0.39238   0.43429   1.00
H2       0.07990    -0.44820   0.43666   1.00
C5       0.31003    0.06653    0.13290   1.00
H2       0.29433    0.10275    0.13862   1.00
H2       0.36654    0.09376    0.13399   1.00
C5       0.27834    0.00199    0.14641   1.00
H2       0.30893    0.01087    0.16046   1.00
H2       0.27610    -0.04160   0.13793   1.00
O_3      0.33106    0.03845    0.02835   1.00
C4       0.30390    0.13222    0.04831   1.00
C3c      0.31962    0.13036    0.06882   1.00
H1       0.37160    0.14690    0.07320   1.00
C3d      0.23601    0.11137    0.04295   1.00
C3       0.26878    0.10640    0.08391   1.00
O2       0.28923    0.11388    0.10385   1.00
C3       0.18506    0.08626    0.05789   1.00
H1       0.13333    0.06857    0.05297   1.00
C2       0.19994    0.08333    0.07867   1.00
C5       0.28218    0.00058    0.01332   1.00
H2       0.30599    0.00434    -0.00178   1.00
H2       0.24443    0.01826    0.01165   1.00
C5       0.24515    -0.07366   0.01990   1.00
H2       0.22298    -0.07717   0.03524   1.00
H2       0.28322    -0.09094   0.02134   1.00
C5       0.18917    -0.11830   0.00470   1.00
H2       0.21089    -0.11467   -0.01069   1.00
H2       0.14987    -0.10259   0.00378   1.00
H2       0.16369    -0.17258   0.00953   1.00
C5       0.22596    0.17089    0.01656   1.00
C5       0.28794    0.05401    0.11063   1.00
H2       0.28038    0.21160    0.01757   1.00
H2       0.19474    0.18634    0.02586   1.00
H2       0.32417    0.04484    0.10155   1.00
H2       0.23629    0.00765    0.10917   1.00
H2       0.22582    -0.01189   0.15146   1.00
H2       0.28420    0.26170    -0.01765   1.00
H2       0.21249    0.26491    -0.00646   1.00
C2       0.45476    0.19725    0.00147   1.00
C3       0.44453    0.24567    0.01201   1.00
O2       0.46956    0.31051    0.00430   1.00
C3       0.41661    0.12808    0.00745   1.00
H1       0.42452    0.09003    0.00004   1.00
C3a      0.39580    0.22401    0.02774   1.00
H1       0.38579    0.26111    0.03488   1.00
C3b      0.36666    0.10641    0.02266   1.00
C4       0.35579    0.15444    0.03292   1.00
O_3      0.21697    0.10734    0.02283   1.00
C5       0.52953    0.35703    0.01467   1.00
H2       0.51975    0.35817    0.03123   1.00
C5       0.55332    0.42752    0.00551   1.00
H2       0.57023    0.34348    0.01271   1.00
H2       0.52219    0.44822    0.01217   1.00
H2       0.54116    0.42028    -0.01099   1.00
C5       0.62996    0.47757    0.00885   1.00
H2       0.64215    0.48003    0.02527   1.00
H2       0.64407    0.52965    0.00352   1.00
H2       0.66212    0.46185    0.00009   1.00
C5       0.20325    0.16367    -0.00547   1.00
H2       0.14662    0.13190    -0.00600   1.00
H2       0.22388    0.13501    -0.01376   1.00
C5       0.22770    0.23337    -0.01560   1.00
H2       0.20436    0.22609    -0.03089   1.00
C5       0.73022    0.70675    0.12862   1.00
H2       0.77721    0.71527    0.13648   1.00
H2       0.69378    0.65109    0.12961   1.00
C5       0.70109    0.74711    0.13959   1.00
H2       0.67092    0.71880    0.15315   1.00
H2       0.66774    0.75589    0.12909   1.00
O_3      0.72300    0.68582    0.02324   1.00
C4       0.82826    0.69599    0.04834   1.00
C3c      0.80187    0.68336    0.06814   1.00
H1       0.75942    0.63379    0.07197   1.00
C3d      0.88421    0.76062    0.04375   1.00
C3       0.82893    0.73435    0.08318   1.00
O2       0.80606    0.71584    0.10277   1.00
C3       0.91042    0.81190    0.05858   1.00
H1       0.95177    0.86140    0.05415   1.00
C2       0.88387    0.80022    0.07862   1.00
C5       0.74716    0.73548    0.00774   1.00
H2       0.73091    0.71234    -0.00763   1.00
H2       0.80397    0.76660    0.00793   1.00
C5       0.71773    0.78185    0.01150   1.00
H2       0.73235    0.80348    0.02708   1.00
H2       0.66102    0.75036    0.01109   1.00
C5       0.74348    0.83906    -0.00433   1.00
H2       0.72946    0.81782    -0.01992   1.00
H2       0.79989    0.87196    -0.00345   1.00
H2       0.72025    0.87152    -0.00159   1.00
C5       0.95844    0.75810    0.02085   1.00
C5       0.75122    0.72745    0.10653   1.00
H2       0.93632    0.70207    0.02248   1.00
H2       1.00204    0.78437    0.03162   1.00
H2       0.70781    0.69560    0.09616   1.00
H2       0.76549    0.78189    0.10410   1.00
H2       0.74285    0.79731    0.14524   1.00
H2       0.99070    0.68801    -0.00998   1.00
H2       1.06589    0.75312    0.00308   1.00
C2       0.74334    0.54554    0.00137   1.00
C3       0.79354    0.54737    0.01447   1.00
O2       0.82781    0.51335    0.00942   1.00
C3       0.71987    0.59203    0.00483   1.00
H1       0.68023    0.59077    -0.00460   1.00
C3a      0.82016    0.59611    0.03020   1.00
H1       0.86130    0.59941    0.03937   1.00
C3b      0.74799    0.64186    0.02007   1.00
C4       0.79864    0.64430    0.03289   1.00
O_3      0.90873    0.77726    0.02412   1.00
C5       0.80134    0.45192    0.02046   1.00
H2       0.80642    0.46163    0.03715   1.00
C5       0.84257    0.41800    0.01429   1.00
H2       0.74648    0.41721    0.01681   1.00
H2       0.89179    0.44315    0.02271   1.00
H2       0.85546    0.42919    -0.00208   1.00
C5       0.80417    0.34043    0.01813   1.00
H2       0.78700    0.33002    0.03418   1.00
H2       0.83777    0.31860    0.01508   1.00
H2       0.75911    0.31338    0.00785   1.00
C5       0.98476    0.77849    -0.00073   1.00
H2       1.01704    0.83505    -0.00138   1.00
H2       0.94025    0.76407    -0.01088   1.00
C5       1.02494    0.74404    -0.00792   1.00
H2       1.04926    0.76543    -0.02281   1.00
C5       0.13926    0.22580    0.06886   1.00
H2       0.13651    0.23918    0.08490   1.00
H2       0.16626    0.27501    0.06056   1.00
C5       0.18007    0.18783    0.06758   1.00
H2       0.23592    0.22456    0.06776   1.00
H2       0.16679    0.15714    0.05340   1.00
O_3      -0.14743   0.12474    0.00834   1.00
C4       -0.13181   0.17266    0.04849   1.00
C3c      -0.06222   0.20117    0.05302   1.00
H1       -0.02497   0.24555    0.04479   1.00
C3d      -0.17960   0.11542    0.05960   1.00
C3       -0.03951   0.17260    0.06795   1.00
O2       0.02834    0.20803    0.07326   1.00
C3       -0.15706   0.08607    0.07420   1.00
H1       -0.19542   0.04077    0.08183   1.00
C2       -0.08683   0.11381    0.07882   1.00
C5       -0.20790   0.06169    0.00551   1.00
H2       -0.23990   0.06373    -0.00701   1.00
H2       -0.23927   0.04533    0.01963   1.00
C5       -0.18755   0.00906    0.00012   1.00
H2       -0.15398   0.00839    0.01236   1.00
H2       -0.15681   0.02558    -0.01410   1.00
C5       -0.25054   -0.06183   -0.00253   1.00
H2       -0.28452   -0.06142   -0.01464   1.00
H2       -0.27999   -0.07938   0.01187   1.00
H2       -0.23470   -0.09930   -0.00690   1.00
C5       -0.28026   0.11276    0.06529   1.00
C5       0.06516    0.18467    0.06168   1.00
H2       -0.25865   0.16714    0.06091   1.00
H2       -0.27511   0.10990    0.08204   1.00
H2       0.06161    0.19389    0.04521   1.00
H2       0.04544    0.12881    0.06366   1.00
H2       0.16941    0.15348    0.08093   1.00
H2       -0.37463   0.16001    0.05637   1.00
H2       -0.38314   0.12798    0.08212   1.00
C2       -0.20348   0.25252    0.00172   1.00
C3       -0.19258   0.27983    0.02151   1.00
O2       -0.22022   0.31940    0.02735   1.00
C3       -0.18700   0.20109    -0.00236   1.00
H1       -0.19309   0.18038    -0.01747   1.00
C3a      -0.16748   0.25430    0.03673   1.00
H1       -0.16310   0.27299    0.05206   1.00
C3b      -0.16412   0.17429    0.01296   1.00
C4       -0.15430   0.20075    0.03269   1.00
O_3      -0.24819   0.08236    0.05468   1.00
C5       -0.16973   0.38903    0.02716   1.00
H2       -0.12699   0.39944    0.03770   1.00
C5       -0.20400   0.42917    0.03410   1.00
H2       -0.14857   0.40573    0.01161   1.00
H2       -0.20808   0.42638    0.05094   1.00
H2       -0.25714   0.40229    0.02812   1.00
C5       -0.16579   0.50407    0.02698   1.00
H2       -0.11148   0.52857    0.03171   1.00
H2       -0.18884   0.53297    0.03372   1.00
H2       -0.16877   0.50790    0.01014   1.00
C5       -0.35558   0.07405    0.05972   1.00
H2       -0.37964   0.02311    0.06717   1.00
H2       -0.35983   0.06493    0.04304   1.00
C5       -0.39210   0.11328    0.06583   1.00
H2       -0.44795   0.08064    0.06349   1.00
C5       0.65179    1.32196    0.87636   1.00
H2       0.61310    1.32336    0.88638   1.00
H2       0.63425    1.32146    0.86060   1.00
C5       0.72200    1.38640    0.88001   1.00
H2       0.72609    1.43077    0.87151   1.00
H2       0.76359    1.37706    0.87502   1.00
O_3      0.62914    1.00757    0.86009   1.00
C4       0.53439    1.02909    0.88174   1.00
C3c      0.55058    1.09621    0.87732   1.00
H1       0.54538    1.10978    0.86198   1.00
C3d      0.54058    1.01221    0.90189   1.00
C3       0.57451    1.14690    0.89246   1.00
O2       0.58132    1.20907    0.88754   1.00
C3       0.56564    1.06287    0.91692   1.00
H1       0.57183    1.04809    0.93201   1.00
C2       0.58295    1.13117    0.91267   1.00
C5       0.65197    0.96952    0.87121   1.00
H2       0.64438    0.92357    0.86278   1.00
H2       0.62481    0.95245    0.88604   1.00
C5       0.72776    1.01547    0.87511   1.00
H2       0.73553    1.06229    0.88303   1.00
H2       0.75443    1.03167    0.86021   1.00
C5       0.75635    0.97871    0.88781   1.00
H2       0.74834    0.93164    0.88006   1.00
H2       0.73141    0.96460    0.90297   1.00
H2       0.81208    1.01256    0.89013   1.00
C5       0.46062    0.90412    0.91106   1.00
C5       0.64880    1.25431    0.88110   1.00
H2       0.42822    0.89768    0.89762   1.00
H2       0.44307    0.92320    0.92401   1.00
H2       0.66071    1.23399    0.86722   1.00
H2       0.68754    1.26193    0.89288   1.00
H2       0.72937    1.40131    0.89638   1.00
H2       0.35624    0.76738    0.90046   1.00
H2       0.34493    0.79227    0.92574   1.00
C2       0.46874    0.87463    0.83598   1.00
C3       0.42069    0.88697    0.84589   1.00
O2       0.35201    0.83976    0.84485   1.00
C3       0.53856    0.91653    0.84084   1.00
H1       0.57677    0.90954    0.83315   1.00
C3a      0.44291    0.93900    0.86063   1.00
H1       0.40516    0.94524    0.86890   1.00
C3b      0.56028    0.96677    0.85596   1.00
C4       0.51236    0.97828    0.86602   1.00
O_3      0.53026    0.94827    0.90674   1.00
C5       0.31955    0.86108    0.83076   1.00
H2       0.32542    0.91139    0.83512   1.00
C5       0.24380    0.80690    0.83075   1.00
H2       0.34089    0.86546    0.81524   1.00
H2       0.21922    0.81560    0.84416   1.00
H2       0.24021    0.75648    0.83308   1.00
C5       0.20698    0.80679    0.81106   1.00
H2       0.21564    0.85887    0.80814   1.00
H2       0.15112    0.77084    0.81230   1.00
H2       0.22530    0.78961    0.79779   1.00
C5       0.45197    0.83500    0.91665   1.00
H2       0.47465    0.83908    0.93194   1.00
H2       0.48213    0.82309    0.90574   1.00
C5       0.37666    0.77816    0.91627   1.00
H2       0.37161    0.73018    0.92244   1.00
C5       -0.03314   0.59409    0.96376   1.00
H2       -0.08017   0.59713    0.96160   1.00
H2       0.01005    0.64673    0.96150   1.00
C5       -0.03192   0.56920    0.98554   1.00
H2       -0.01340   0.61209    0.99656   1.00
H2       0.00212    0.54693    0.98618   1.00
O_3      0.08024    0.48121    0.88242   1.00
C4       -0.02989   0.50582    0.88152   1.00
C3c      -0.02473   0.54190    0.89938   1.00
H1       0.01878    0.59223    0.90163   1.00
C3d      -0.08747   0.44070    0.87876   1.00
C3       -0.07472   0.51354    0.91468   1.00
O2       -0.07049   0.55497    0.93055   1.00
C3       -0.13668   0.41179    0.89413   1.00
H1       -0.17871   0.36075    0.89165   1.00
C2       -0.13187   0.44728    0.91239   1.00
C5       0.06244    0.41567    0.87520   1.00
H2       0.09652    0.41771    0.86269   1.00
H2       0.00882    0.38808    0.86954   1.00
C5       0.06920    0.37608    0.89279   1.00
H2       0.03662    0.37568    0.90551   1.00
H2       0.12305    0.40374    0.89819   1.00
C5       0.04837    0.30308    0.88642   1.00
H2       0.08038    0.30310    0.87362   1.00
H2       -0.00609   0.27467    0.88169   1.00
H2       0.05508    0.27542    0.89934   1.00
C5       -0.12321   0.41617    0.84591   1.00
C5       -0.03407   0.54741    0.94681   1.00
H2       -0.09184   0.47032    0.84113   1.00
H2       -0.17529   0.40609    0.84997   1.00
H2       0.01902    0.56323    0.94196   1.00
H2       -0.05803   0.49354    0.95230   1.00
H2       -0.08421   0.53017    0.99064   1.00
H2       -0.09947   0.44413    0.80303   1.00
H2       -0.18944   0.40123    0.80963   1.00
C2       0.12414    0.58609    0.83548   1.00
C3       0.07135    0.60208    0.83533   1.00
O2       0.05860    0.62857    0.81812   1.00
C3       0.12645    0.54615    0.85163   1.00
H1       0.16720    0.53450    0.85247   1.00
C3a      0.02166    0.57670    0.85081   1.00
H1       -0.02058   0.58614    0.84985   1.00
C3b      0.07575    0.51918    0.86665   1.00
C4       0.02271    0.53424    0.86631   1.00
O_3      -0.09244   0.40102    0.86217   1.00
C5       0.08579    0.69951    0.82025   1.00
H2       0.06296    0.71148    0.83353   1.00
C5       0.06861    0.72467    0.80079   1.00
H2       0.14221    0.72617    0.82224   1.00
H2       0.01468    0.71284    0.80172   1.00
H2       0.07118    0.69391    0.78799   1.00
C5       0.11665    0.80143    0.79695   1.00
H2       0.11755    0.83095    0.81052   1.00
H2       0.09912    0.81896    0.78366   1.00
H2       0.16962    0.81281    0.79341   1.00
C5       -0.12874   0.37056    0.82820   1.00
H2       -0.16923   0.31739    0.83173   1.00
H2       -0.07982   0.37024    0.82702   1.00
C5       -0.14397   0.39491    0.80809   1.00
H2       -0.15469   0.35671    0.79598   1.00
C5       0.43358    0.41463    0.96727   1.00
H2       0.42207    0.36090    0.96665   1.00
H2       0.38355    0.41243    0.96629   1.00
C5       0.46914    0.44708    0.98761   1.00
H2       0.43104    0.43273    1.00003   1.00
H2       0.49840    0.50363    0.98620   1.00
O_3      0.53786    0.60405    0.87805   1.00
C4       0.49405    0.46421    0.88154   1.00
C3c      0.46388    0.44450    0.90079   1.00
H1       0.41820    0.44653    0.90415   1.00
C3d      0.55299    0.46025    0.87738   1.00
C3       0.49242    0.42289    0.91605   1.00
O2       0.45561    0.39657    0.93361   1.00
C3       0.58227    0.44000    0.89266   1.00
H1       0.62883    0.44008    0.88899   1.00
C2       0.55284    0.42061    0.91228   1.00
C5       0.60168    0.64107    0.86830   1.00
H2       0.59973    0.67049    0.85501   1.00
H2       0.62022    0.60644    0.86295   1.00
C5       0.65199    0.69095    0.88363   1.00
H2       0.65252    0.66173    0.89716   1.00
H2       0.63331    0.72566    0.88873   1.00
C5       0.72361    0.73179    0.87445   1.00
H2       0.72337    0.76072    0.86085   1.00
H2       0.74327    0.69737    0.87000   1.00
H2       0.75934    0.76901    0.88573   1.00
C5       0.55994    0.43096    0.84473   1.00
C5       0.47603    0.44874    0.94829   1.00
H2       0.50541    0.41379    0.84166   1.00
H2       0.56412    0.38615    0.84978   1.00
H2       0.46560    0.48914    0.94270   1.00
H2       0.53172    0.47383    0.95186   1.00
H2       0.50446    0.42850    0.99233   1.00
H2       0.51637    0.41381    0.80291   1.00
H2       0.55049    0.35915    0.81002   1.00
C2       0.41412    0.53762    0.83529   1.00
C3       0.38878    0.46693    0.83744   1.00
O2       0.35159    0.42259    0.82203   1.00
C3       0.46353    0.58250    0.84932   1.00
H1       0.48265    0.63674    0.84841   1.00
C3a      0.41428    0.44304    0.85301   1.00
H1       0.39722    0.38916    0.85374   1.00
C3b      0.49036    0.55877    0.86438   1.00
C4       0.46589    0.48858    0.86630   1.00
O_3      0.58753    0.48392    0.85921   1.00
C5       0.28142    0.38868    0.82674   1.00
H2       0.27058    0.35896    0.84112   1.00
C5       0.24402    0.33990    0.80917   1.00
H2       0.26280    0.42564    0.82834   1.00
H2       0.24848    0.29343    0.81110   1.00
H2       0.27182    0.36511    0.79496   1.00
C5       0.16849    0.32056    0.80762   1.00
H2       0.14287    0.30047    0.82244   1.00
H2       0.14167    0.28076    0.79581   1.00
H2       0.16329    0.36535    0.80312   1.00
C5       0.60022    0.45889    0.82517   1.00
H2       0.65175    0.46496    0.82732   1.00
H2       0.60776    0.51083    0.82257   1.00
C5       0.56372    0.41266    0.80687   1.00
H2       0.59761    0.43068    0.79337   1.00
C5       0.65302    0.39187    0.28820   1.00
H2       0.66757    0.35516    0.28214   1.00
H2       0.65680    0.39008    0.30496   1.00
C5       0.70329    0.46425    0.28019   1.00
H2       0.75103    0.48843    0.28933   1.00
H2       0.67933    0.49679    0.28091   1.00
O_3      0.30700    0.28281    0.29651   1.00
C4       0.36262    0.20105    0.28498   1.00
C3c      0.43231    0.23895    0.28976   1.00
H1       0.44799    0.25096    0.30542   1.00
C3d      0.34332    0.18511    0.26451   1.00
C3       0.48266    0.26270    0.27453   1.00
O2       0.54974    0.29216    0.28050   1.00
C3       0.39327    0.20979    0.24928   1.00
H1       0.37591    0.19833    0.23374   1.00
C2       0.46394    0.24882    0.25383   1.00
C5       0.25805    0.27939    0.28257   1.00
H2       0.20836    0.26471    0.29000   1.00
H2       0.24864    0.24181    0.27027   1.00
C5       0.28587    0.34975    0.27326   1.00
H2       0.33643    0.36524    0.26633   1.00
H2       0.29446    0.38672    0.28564   1.00
C5       0.23667    0.35000    0.25732   1.00
H2       0.18592    0.33412    0.26410   1.00
H2       0.22990    0.31486    0.24459   1.00
H2       0.25716    0.40217    0.25101   1.00
C5       0.24823    0.08121    0.25977   1.00
C5       0.57861    0.36367    0.28189   1.00
H2       0.25023    0.06432    0.27547   1.00
H2       0.27612    0.06436    0.24948   1.00
H2       0.55104    0.37649    0.29354   1.00
H2       0.57581    0.38705    0.26723   1.00
H2       0.71890    0.46255    0.26421   1.00
H2       0.12729    -0.03605   0.27541   1.00
H2       0.16065    -0.05545   0.25287   1.00
C2       0.20694    0.13398    0.33039   1.00
C3       0.23667    0.09379    0.32562   1.00
O2       0.20541    0.02632    0.33149   1.00
C3       0.23219    0.19771    0.32058   1.00
H1       0.21173    0.23047    0.32428   1.00
C3a      0.28903    0.11698    0.31097   1.00
H1       0.30855    0.08390    0.30664   1.00
C3b      0.28273    0.21963    0.30555   1.00
C4       0.31150    0.17915    0.30060   1.00
O_3      0.27536    0.15243    0.25887   1.00
C5       0.23844    0.01905    0.34866   1.00
H2       0.29324    0.03691    0.34543   1.00
C5       0.20169    -0.05692   0.35398   1.00
H2       0.23543    0.04850    0.36178   1.00
H2       0.22020    -0.08294   0.34358   1.00
H2       0.14655    -0.07807   0.35055   1.00
C5       0.21168    -0.07041   0.37629   1.00
H2       0.26702    -0.04437   0.37987   1.00
H2       0.18915    -0.12604   0.37913   1.00
H2       0.18565    -0.05209   0.38687   1.00
C5       0.17402    0.04754    0.25310   1.00
H2       0.17260    0.05481    0.23644   1.00
H2       0.15034    0.07491    0.26049   1.00
C5       0.13412    -0.02868   0.25866   1.00
H2       0.08248    -0.05304   0.25174   1.00
C5       0.59680    0.37023    0.28430   1.00
H2       0.57452    0.38037    0.27065   1.00
H2       0.57258    0.38011    0.29752   1.00
C5       0.57963    0.29494    0.28418   1.00
H2       0.52711    0.26083    0.28999   1.00
H2       0.61661    0.28889    0.29383   1.00
O_3      0.91564    0.62636    0.31666   1.00
C4       0.83893    0.63773    0.28487   1.00
C3c      0.77319    0.58083    0.28666   1.00
H1       0.74275    0.57540    0.29991   1.00
C3d      0.87737    0.64435    0.26734   1.00
C3       0.74608    0.52979    0.27163   1.00
O2       0.67857    0.48010    0.27322   1.00
C3       0.85103    0.59297    0.25254   1.00
H1       0.88333    0.59905    0.23971   1.00
C2       0.78494    0.53472    0.25421   1.00
C5       0.98285    0.64565    0.31075   1.00
H2       1.02175    0.68588    0.32081   1.00
H2       0.99308    0.66513    0.29485   1.00
C5       0.99041    0.58277    0.31211   1.00
H2       0.95030    0.54191    0.30251   1.00
H2       0.98072    0.56415    0.32808   1.00
C5       1.06159    0.59873    0.30523   1.00
H2       1.10192    0.63983    0.31466   1.00
H2       1.07042    0.61506    0.28906   1.00
H2       1.06666    0.55256    0.30675   1.00
C5       0.94538    0.75421    0.25691   1.00
C5       0.67300    0.42290    0.28361   1.00
H2       0.91864    0.77337    0.26673   1.00
H2       0.92123    0.74263    0.24159   1.00
H2       0.69370    0.43760    0.29931   1.00
H2       0.70183    0.40098    0.27595   1.00
H2       0.58093    0.27723    0.26844   1.00
H2       1.01226    0.89913    0.26451   1.00
H2       0.99558    0.87818    0.23774   1.00
C2       0.92713    0.79066    0.33107   1.00
C3       0.88583    0.79555    0.31588   1.00
O2       0.88702    0.85632    0.31262   1.00
C3       0.93553    0.73280    0.33114   1.00
H1       0.96538    0.72666    0.34287   1.00
C3a      0.85568    0.74414    0.30098   1.00
H1       0.82743    0.75057    0.28879   1.00
C3b      0.90728    0.68287    0.31593   1.00
C4       0.86711    0.68833    0.30066   1.00
O_3      0.94422    0.69665    0.26556   1.00
C5       0.82905    0.85404    0.32137   1.00
H2       0.78099    0.81189    0.31475   1.00
C5       0.83356    0.92246    0.31682   1.00
H2       0.82807    0.84660    0.33811   1.00
H2       0.81610    0.92129    0.30096   1.00
H2       0.88847    0.96245    0.31731   1.00
C5       0.79185    0.93957    0.33176   1.00
H2       0.73837    0.89667    0.33226   1.00
H2       0.79170    0.98665    0.32697   1.00
H2       0.81421    0.94949    0.34736   1.00
C5       1.01973    0.80980    0.25490   1.00
H2       1.04337    0.79545    0.24245   1.00
H2       1.04671    0.81100    0.26916   1.00
C5       1.02723    0.88023    0.25092   1.00
H2       1.08127    0.91799    0.24744   1.00
C5       0.76211    0.39652    0.28549   1.00
H2       0.79576    0.42120    0.27222   1.00
H2       0.79433    0.42023    0.29910   1.00
C5       0.70199    0.41072    0.28504   1.00
H2       0.71777    0.46220    0.29129   1.00
H2       0.65862    0.37166    0.29415   1.00
O_3      0.70871    0.07882    0.31555   1.00
C4       0.79884    0.16111    0.28487   1.00
C3c      0.80471    0.22551    0.28710   1.00
H1       0.82735    0.25489    0.30070   1.00
C3d      0.77006    0.12407    0.26691   1.00
C3       0.78076    0.25257    0.27206   1.00
O2       0.79574    0.31911    0.27417   1.00
C3       0.74499    0.15030    0.25208   1.00
H1       0.72114    0.11900    0.23888   1.00
C2       0.74984    0.21502    0.25418   1.00
C5       0.66348    0.01171    0.30891   1.00
H2       0.66545    -0.02731   0.31874   1.00
H2       0.67519    0.00387    0.29303   1.00
C5       0.59174    0.00106    0.30970   1.00
H2       0.59026    0.04125    0.30033   1.00
H2       0.58037    0.00839    0.32565   1.00
C5       0.53933    -0.07014   0.30200   1.00
H2       0.54085    -0.11052   0.31120   1.00
H2       0.54923    -0.07667   0.28586   1.00
H2       0.48706    -0.07753   0.30311   1.00
C5       0.81705    0.06064    0.25640   1.00
C5       0.74158    0.32113    0.28420   1.00
H2       0.86160    0.08772    0.26671   1.00
H2       0.83054    0.08645    0.24132   1.00
H2       0.73460    0.29894    0.29972   1.00
H2       0.69193    0.29157    0.27600   1.00
H2       0.68444    0.41034    0.26917   1.00
H2       0.89888    -0.00205   0.26420   1.00
H2       0.89682    0.01698    0.23751   1.00
C2       0.86363    0.07279    0.33102   1.00
C3       0.91067    0.11682    0.31642   1.00
O2       0.97194    0.11865    0.31360   1.00
C3       0.79633    0.06164    0.33055   1.00
H1       0.75960    0.02962    0.34183   1.00
C3a      0.88931    0.14695    0.30154   1.00
H1       0.92484    0.17741    0.28978   1.00
C3b      0.77467    0.08994    0.31535   1.00
C4       0.82119    0.13285    0.30066   1.00
O_3      0.75842    0.05834    0.26464   1.00
C5       1.02520    0.17678    0.32309   1.00
H2       1.02983    0.22470    0.31679   1.00
C5       1.09119    0.17570    0.31899   1.00
H2       1.01666    0.17562    0.33977   1.00
H2       1.10884    0.19519    0.30336   1.00
H2       1.07837    0.12136    0.31905   1.00
C5       1.14768    0.21740    0.33459   1.00
H2       1.15601    0.27004    0.33548   1.00
H2       1.19644    0.22016    0.33016   1.00
H2       1.13420    0.19331    0.34996   1.00
C5       0.80147    -0.01258   0.25383   1.00
H2       0.76515    -0.03599   0.24097   1.00
H2       0.77472    -0.04163   0.26774   1.00
C5       0.86652    -0.01668   0.25028   1.00
H2       0.85272    -0.06980   0.24638   1.00
C5       0.84196    0.65753    0.69821   1.00
H2       0.86377    0.62319    0.69788   1.00
H2       0.88627    0.71022    0.69861   1.00
C5       0.79918    0.64658    0.67881   1.00
H2       0.83258    0.67530    0.66579   1.00
H2       0.76177    0.66405    0.68141   1.00
O_3      0.73099    0.71132    0.79120   1.00
C4       0.79863    0.63695    0.78511   1.00
C3c      0.82467    0.65218    0.76528   1.00
H1       0.86325    0.70370    0.76146   1.00
C3d      0.74908    0.56928    0.78984   1.00
C3       0.80090    0.60181    0.75005   1.00
O2       0.83456    0.61855    0.73173   1.00
C3       0.72437    0.51929    0.77462   1.00
H1       0.68463    0.46865    0.77879   1.00
C2       0.74961    0.53398    0.75443   1.00
C5       0.66963    0.67425    0.80218   1.00
H2       0.66808    0.70239    0.81586   1.00
H2       0.66223    0.62392    0.80720   1.00
C5       0.61140    0.66253    0.78821   1.00
H2       0.61409    0.63611    0.77428   1.00
H2       0.61897    0.71309    0.78345   1.00
C5       0.54228    0.62027    0.79877   1.00
H2       0.53942    0.64613    0.81277   1.00
H2       0.53364    0.56889    0.80290   1.00
H2       0.50045    0.61352    0.78848   1.00
C5       0.75702    0.53693    0.82202   1.00
C5       0.80203    0.64145    0.71812   1.00
H2       0.80898    0.58150    0.82423   1.00
H2       0.76190    0.49313    0.81635   1.00
H2       0.80369    0.68826    0.72420   1.00
H2       0.74723    0.60253    0.71555   1.00
H2       0.77131    0.59170    0.67421   1.00
H2       0.80851    0.57051    0.86298   1.00
H2       0.78894    0.48540    0.85543   1.00
C2       0.86323    0.78936    0.83146   1.00
C3       0.90012    0.75524    0.82796   1.00
O2       0.94574    0.75748    0.84224   1.00
C3       0.80717    0.77430    0.81870   1.00
H1       0.77898    0.80081    0.82065   1.00
C3a      0.87942    0.70619    0.81235   1.00
H1       0.90577    0.67773    0.81062   1.00
C3b      0.78539    0.72394    0.80362   1.00
C4       0.82146    0.68931    0.80036   1.00
O_3      0.71811    0.55271    0.80870   1.00
C5       1.01314    0.80431    0.83627   1.00
H2       1.02565    0.78984    0.82136   1.00
C5       1.06041    0.80296    0.85263   1.00
H2       1.02099    0.85686    0.83503   1.00
H2       1.06613    0.75748    0.85005   1.00
H2       1.03405    0.79498    0.86749   1.00
C5       1.13079    0.86851    0.85305   1.00
H2       1.15399    0.87857    0.83769   1.00
H2       1.16555    0.86332    0.86393   1.00
H2       1.12668    0.91341    0.85817   1.00
C5       0.72045    0.51785    0.84239   1.00
H2       0.67372    0.46687    0.84091   1.00
H2       0.70324    0.55503    0.84586   1.00
C5       0.76656    0.51776    0.85953   1.00
H2       0.73629    0.49684    0.87364   1.00
C5       0.59091    0.43377    0.77381   1.00
H2       0.62974    0.41753    0.77338   1.00
H2       0.59073    0.45035    0.78965   1.00
C5       0.61159    0.49390    0.75895   1.00
H2       0.65017    0.54291    0.76597   1.00
H2       0.56599    0.49756    0.75465   1.00
O_3      0.25049    0.18125    0.78341   1.00
C4       0.36301    0.16049    0.78507   1.00
C3c      0.42072    0.22559    0.78707   1.00
H1       0.42699    0.25537    0.80055   1.00
C3d      0.35630    0.12212    0.76752   1.00
C3       0.47053    0.25367    0.77172   1.00
O2       0.52948    0.31390    0.77580   1.00
C3       0.40514    0.15045    0.75203   1.00
H1       0.39659    0.12009    0.73854   1.00
C2       0.46343    0.21652    0.75371   1.00
C5       0.20071    0.13803    0.76928   1.00
H2       0.14923    0.10797    0.77630   1.00
H2       0.21454    0.10159    0.76237   1.00
C5       0.19713    0.18274    0.75270   1.00
H2       0.24900    0.21419    0.74607   1.00
H2       0.18266    0.21847    0.75974   1.00
C5       0.14571    0.13946    0.73625   1.00
H2       0.09389    0.10757    0.74278   1.00
H2       0.16139    0.10546    0.72872   1.00
H2       0.14271    0.17308    0.72449   1.00
C5       0.30560    0.00756    0.77306   1.00
C5       0.52296    0.36959    0.76900   1.00
H2       0.31200    0.01420    0.78978   1.00
H2       0.35026    0.00569    0.76666   1.00
H2       0.48044    0.37078    0.77718   1.00
H2       0.51174    0.36683    0.75239   1.00
H2       0.63570    0.48757    0.74494   1.00
H2       0.22583    -0.11057   0.79824   1.00
H2       0.28220    -0.12175   0.78103   1.00
C2       0.20603    0.07547    0.83018   1.00
C3       0.26379    0.06748    0.83190   1.00
O2       0.26296    0.01913    0.84482   1.00
C3       0.20330    0.11474    0.81389   1.00
H1       0.16063    0.12329    0.81245   1.00
C3a      0.31604    0.09697    0.81722   1.00
H1       0.35803    0.08713    0.81811   1.00
C3b      0.25429    0.14216    0.79896   1.00
C4       0.31116    0.13328    0.80052   1.00
O_3      0.29800    0.05999    0.76412   1.00
C5       0.29925    0.05036    0.86275   1.00
H2       0.35347    0.08892    0.85939   1.00
C5       0.29694    -0.00617   0.87604   1.00
H2       0.27533    0.07600    0.87102   1.00
H2       0.33590    -0.01844   0.87038   1.00
H2       0.24634    -0.05272   0.87367   1.00
C5       0.30850    0.01299    0.89872   1.00
H2       0.35661    0.06236    0.90063   1.00
H2       0.31219    -0.02681   0.90763   1.00
H2       0.26508    0.01698    0.90527   1.00
C5       0.24101    -0.05970   0.76862   1.00
H2       0.24085    -0.07193   0.75225   1.00
H2       0.19636    -0.05250   0.77115   1.00
C5       0.23514    -0.11799   0.78206   1.00
H2       0.19145    -0.16736   0.77698   1.00
C5       0.57633    0.18536    0.77878   1.00
H2       0.59788    0.24116    0.77694   1.00
H2       0.56373    0.17465    0.79514   1.00
C5       0.51112    0.14679    0.76572   1.00
H2       0.46639    0.14407    0.77363   1.00
H2       0.50053    0.09409    0.76255   1.00
O_3      0.80388    0.06434    0.78655   1.00
C4       0.83959    0.20251    0.78505   1.00
C3c      0.77871    0.20345    0.78814   1.00
H1       0.75230    0.18656    0.80248   1.00
C3d      0.87372    0.22566    0.76636   1.00
C3       0.75047    0.22512    0.77281   1.00
O2       0.69549    0.23252    0.77778   1.00
C3       0.84506    0.24603    0.75093   1.00
H1       0.87180    0.26107    0.73660   1.00
C2       0.78314    0.24660    0.75373   1.00
C5       0.83902    0.04772    0.77200   1.00
H2       0.86659    0.02358    0.77901   1.00
H2       0.87682    0.09397    0.76353   1.00
C5       0.78658    -0.00260   0.75720   1.00
H2       0.75772    0.02078    0.75062   1.00
H2       0.74949    -0.04881   0.76579   1.00
C5       0.82088    -0.02160   0.74038   1.00
H2       0.85019    -0.04454   0.74684   1.00
H2       0.85616    0.02414    0.73134   1.00
H2       0.78164    -0.05955   0.72996   1.00
C5       0.98967    0.28028    0.76884   1.00
C5       0.63416    0.17193    0.77315   1.00
H2       0.98856    0.28598    0.78557   1.00
H2       0.99500    0.32705    0.76146   1.00
H2       0.63035    0.12858    0.78224   1.00
H2       0.63065    0.15758    0.75677   1.00
H2       0.51636    0.17374    0.75104   1.00
H2       1.11189    0.31365    0.79135   1.00
H2       1.12510    0.37806    0.77263   1.00
C2       0.92393    0.13001    0.83021   1.00
C3       0.93973    0.19873    0.83040   1.00
O2       0.99433    0.24666    0.84154   1.00
C3       0.87740    0.08572    0.81548   1.00
H1       0.86289    0.03244    0.81526   1.00
C3a      0.91050    0.22186    0.81575   1.00
H1       0.92611    0.27544    0.81538   1.00
C3b      0.85012    0.10936    0.80053   1.00
C4       0.86669    0.17792    0.80054   1.00
O_3      0.93098    0.22091    0.76200   1.00
C5       0.97134    0.26137    0.85971   1.00
H2       0.93628    0.28163    0.85659   1.00
C5       1.03448    0.31546    0.87095   1.00
H2       0.94408    0.21495    0.86936   1.00
H2       1.05028    0.36610    0.86405   1.00
H2       1.07661    0.30466    0.86800   1.00
C5       1.02266    0.31679    0.89394   1.00
H2       0.97713    0.32221    0.89659   1.00
H2       1.06761    0.36033    0.90130   1.00
H2       1.01529    0.26940    0.90153   1.00
C5       1.05124    0.27335    0.76339   1.00
H2       1.05907    0.27952    0.74668   1.00
H2       1.03914    0.22046    0.76712   1.00
C5       1.11586    0.32537    0.77480   1.00
H2       1.16095    0.32364    0.76891   1.00
C5       -0.04064   0.35559    0.46181   1.00
H2       -0.04896   0.39411    0.46972   1.00
H2       0.01498    0.37458    0.46278   1.00
C5       -0.08124   0.28601    0.47270   1.00
H2       -0.05303   0.28383    0.48624   1.00
H2       -0.09020   0.24394    0.46215   1.00
O_3      -0.01961   0.37055    0.35643   1.00
C4       -0.02931   0.46560    0.38167   1.00
C3c      -0.01680   0.45151    0.40144   1.00
H1       0.03269    0.45836    0.40525   1.00
C3d      -0.09383   0.45727    0.37711   1.00
C3       -0.06780   0.42756    0.41648   1.00
O2       -0.04937   0.42287    0.43605   1.00
C3       -0.14512   0.43220    0.39194   1.00
H1       -0.19453   0.42433    0.38753   1.00
C2       -0.13356   0.41698    0.41195   1.00
C5       -0.06926   0.34541    0.34092   1.00
H2       -0.04613   0.35240    0.32556   1.00
H2       -0.10018   0.37131    0.34117   1.00
C5       -0.11588   0.26961    0.34461   1.00
H2       -0.13751   0.26250    0.36019   1.00
H2       -0.08459   0.24419    0.34414   1.00
C5       -0.17309   0.23855    0.32877   1.00
H2       -0.15185   0.24588    0.31317   1.00
H2       -0.20581   0.26226    0.32971   1.00
H2       -0.20575   0.18285    0.33145   1.00
C5       -0.09093   0.53447    0.35432   1.00
C5       -0.06127   0.35627    0.43973   1.00
H2       -0.03487   0.56818    0.35596   1.00
H2       -0.11706   0.55184    0.36512   1.00
H2       -0.02955   0.34465    0.42932   1.00
H2       -0.11577   0.31629    0.43727   1.00
H2       -0.13137   0.27771    0.47837   1.00
H2       -0.02049   0.63711    0.32359   1.00
H2       -0.08540   0.64737    0.33671   1.00
C2       0.12113    0.53115    0.33469   1.00
C3       0.11952    0.57949    0.34787   1.00
O2       0.15379    0.64782    0.34289   1.00
C3       0.07440    0.46120    0.33809   1.00
H1       0.07549    0.42284    0.32860   1.00
C3a      0.07078    0.55734    0.36360   1.00
H1       0.06766    0.59518    0.37282   1.00
C3b      0.02458    0.43949    0.35333   1.00
C4       0.02236    0.48766    0.36622   1.00
O_3      -0.11038   0.46548    0.35750   1.00
C5       0.21524    0.68245    0.35394   1.00
H2       0.20551    0.67765    0.37063   1.00
C5       0.24943    0.75768    0.34786   1.00
H2       0.24977    0.66213    0.35024   1.00
H2       0.22446    0.78183    0.35633   1.00
H2       0.23830    0.75965    0.33149   1.00
C5       0.32700    0.79653    0.35170   1.00
H2       0.33734    0.78951    0.36773   1.00
H2       0.34905    0.85202    0.34871   1.00
H2       0.35390    0.77847    0.34138   1.00
C5       -0.11122   0.54078    0.33276   1.00
H2       -0.16776   0.51672    0.33211   1.00
H2       -0.09698   0.51068    0.32255   1.00
C5       -0.07650   0.61551    0.32565   1.00
H2       -0.09781   0.61874    0.31078   1.00
C5       0.39811    1.03905    0.46222   1.00
H2       0.44540    1.04794    0.46997   1.00
H2       0.36203    0.98331    0.46323   1.00
C5       0.36873    1.07894    0.47332   1.00
H2       0.33897    1.05048    0.48693   1.00
H2       0.33493    1.08740    0.46293   1.00
O_3      0.38875    1.01829    0.35683   1.00
C4       0.49493    1.02932    0.38167   1.00
C3c      0.46898    1.01649    0.40152   1.00
H1       0.42686    0.96675    0.40538   1.00
C3d      0.55046    1.09417    0.37702   1.00
C3       0.49602    1.06748    0.41656   1.00
O2       0.47364    1.04881    0.43618   1.00
C3       0.57665    1.14544    0.39186   1.00
H1       0.61763    1.19509    0.38740   1.00
C2       0.55051    1.13355    0.41195   1.00
C5       0.41223    1.06797    0.34134   1.00
H2       0.39579    1.04481    0.32599   1.00
H2       0.46902    1.09946    0.34143   1.00
C5       0.38234    1.11385    0.34525   1.00
H2       0.39717    1.13550    0.36082   1.00
H2       0.32565    1.08200    0.34494   1.00
C5       0.40735    1.17106    0.32944   1.00
H2       0.39312    1.14980    0.31385   1.00
H2       0.46373    1.20432    0.33021   1.00
H2       0.38378    1.20316    0.33228   1.00
C5       0.62454    1.09236    0.35392   1.00
C5       0.41854    1.05987    0.44011   1.00
H2       0.60286    1.03638    0.35553   1.00
H2       0.66833    1.11890    0.36461   1.00
H2       0.37499    1.02779    0.42980   1.00
H2       0.43233    1.11420    0.43771   1.00
H2       0.41034    1.12928    0.47894   1.00
H2       0.65689    1.02292    0.32291   1.00
H2       0.73212    1.08839    0.33587   1.00
C2       0.40996    0.87885    0.33470   1.00
C3       0.46066    0.88111    0.34767   1.00
O2       0.49527    0.84757    0.34248   1.00
C3       0.38605    0.92492    0.33829   1.00
H1       0.34604    0.92332    0.32897   1.00
C3a      0.48729    0.92985    0.36341   1.00
H1       0.52879    0.93350    0.37247   1.00
C3b      0.41418    0.97475    0.35354   1.00
C4       0.46531    0.97763    0.36622   1.00
O_3      0.57450    1.11099    0.35735   1.00
C5       0.46948    0.78615    0.35350   1.00
H2       0.47486    0.79584    0.37019   1.00
C5       0.51106    0.75277    0.34718   1.00
H2       0.41461    0.75111    0.34995   1.00
H2       0.56045    0.77823    0.35550   1.00
H2       0.52355    0.76404    0.33078   1.00
C5       0.47327    0.67520    0.35100   1.00
H2       0.45647    0.66466    0.36708   1.00
H2       0.50715    0.65378    0.34783   1.00
H2       0.42803    0.64789    0.34080   1.00
C5       0.65032    1.11293    0.33230   1.00
H2       0.68222    1.16952    0.33165   1.00
H2       0.60552    1.09819    0.32225   1.00
C5       0.69082    1.07901    0.32496   1.00
H2       0.71475    1.10054    0.31004   1.00
C5       0.64110    0.60197    0.46221   1.00
H2       0.60268    0.55469    0.46996   1.00
H2       0.62146    0.63807    0.46321   1.00
C5       0.71038    0.63133    0.47330   1.00
H2       0.71171    0.66112    0.48690   1.00
H2       0.75264    0.66511    0.46290   1.00
O_3      0.62954    0.61119    0.35682   1.00
C4       0.53440    0.50507    0.38167   1.00
C3c      0.54756    0.53105    0.40152   1.00
H1       0.53997    0.57318    0.40538   1.00
C3d      0.54368    0.44952    0.37702   1.00
C3       0.57151    0.50401    0.41656   1.00
O2       0.57526    0.52642    0.43617   1.00
C3       0.56876    0.42333    0.39186   1.00
H1       0.57739    0.38231    0.38740   1.00
C2       0.58304    0.44948    0.41195   1.00
C5       0.65569    0.58767    0.34132   1.00
H2       0.64897    0.60410    0.32597   1.00
H2       0.63037    0.53087    0.34141   1.00
C5       0.73148    0.61753    0.34523   1.00
H2       0.73830    0.60271    0.36079   1.00
H2       0.75633    0.67422    0.34491   1.00
C5       0.76363    0.59248    0.32941   1.00
H2       0.75659    0.60669    0.31382   1.00
H2       0.74048    0.53609    0.33019   1.00
H2       0.81929    0.61602    0.33224   1.00
C5       0.46774    0.37543    0.35394   1.00
C5       0.64144    0.58150    0.44009   1.00
H2       0.43346    0.39713    0.35555   1.00
H2       0.45047    0.33164    0.36463   1.00
H2       0.65292    0.62504    0.42978   1.00
H2       0.68196    0.56768    0.43770   1.00
H2       0.71909    0.58971    0.47892   1.00
H2       0.36590    0.34308    0.32294   1.00
H2       0.35613    0.26785    0.33590   1.00
C2       0.46890    0.59003    0.33470   1.00
C3       0.42046    0.53937    0.34768   1.00
O2       0.35230    0.50478    0.34250   1.00
C3       0.53888    0.61392    0.33828   1.00
H1       0.57729    0.65391    0.32895   1.00
C3a      0.44257    0.51274    0.36341   1.00
H1       0.40472    0.47126    0.37248   1.00
C3b      0.56058    0.58579    0.35353   1.00
C4       0.51233    0.53469    0.36622   1.00
O_3      0.53642    0.42544    0.35736   1.00
C5       0.31672    0.53061    0.35352   1.00
H2       0.32105    0.52525    0.37021   1.00
C5       0.24175    0.48906    0.34721   1.00
H2       0.33657    0.58548    0.34996   1.00
H2       0.21780    0.43967    0.35553   1.00
H2       0.24050    0.47654    0.33081   1.00
C5       0.20200    0.52689    0.35103   1.00
H2       0.20829    0.54371    0.36711   1.00
H2       0.14669    0.49303    0.34787   1.00
H2       0.21994    0.57212    0.34082   1.00
C5       0.46248    0.34961    0.33232   1.00
H2       0.48715    0.31769    0.33167   1.00
H2       0.49254    0.39439    0.32226   1.00
C5       0.38804    0.30912    0.32499   1.00
H2       0.38561    0.28518    0.31007   1.00
C5       0.32866    0.38275    0.29282   1.00
H2       0.37432    0.43301    0.28959   1.00
H2       0.34364    0.34406    0.28930   1.00
C5       0.30932    0.37904    0.31548   1.00
H2       0.34158    0.36581    0.32504   1.00
H2       0.25477    0.33985    0.31772   1.00
O_3      0.07541    0.24298    0.21899   1.00
C4       0.20230    0.36327    0.21485   1.00
C3c      0.24218    0.36360    0.23120   1.00
H1       0.25609    0.32447    0.23226   1.00
C3d      0.18555    0.41529    0.21360   1.00
C3       0.26386    0.41348    0.24654   1.00
O2       0.30952    0.41546    0.26069   1.00
C3       0.20596    0.46426    0.22905   1.00
H1       0.18986    0.50172    0.22782   1.00
C2       0.24569    0.46491    0.24582   1.00
C5       0.02000    0.25249    0.21415   1.00
H2       -0.01378   0.21601    0.20233   1.00
H2       0.03812    0.30535    0.20857   1.00
C5       -0.02149   0.24067    0.23337   1.00
H2       0.01273    0.27580    0.24535   1.00
H2       -0.03984   0.18756    0.23869   1.00
C5       -0.08168   0.25241    0.22961   1.00
H2       -0.11581   0.21782    0.21755   1.00
H2       -0.06331   0.30609    0.22497   1.00
H2       -0.11226   0.24207    0.24371   1.00
C5       0.18043    0.44831    0.18127   1.00
C5       0.27405    0.37650    0.27788   1.00
H2       0.20694    0.42226    0.17494   1.00
H2       0.21918    0.50240    0.18465   1.00
H2       0.24013    0.32209    0.27350   1.00
H2       0.24129    0.39476    0.28505   1.00
H2       0.31811    0.42941    0.32109   1.00
H2       0.17230    0.42496    0.13803   1.00
H2       0.21220    0.51487    0.14451   1.00
C2       0.12839    0.20866    0.16898   1.00
C3       0.19373    0.26691    0.16710   1.00
O2       0.22705    0.28331    0.14867   1.00
C3       0.09009    0.20145    0.18670   1.00
H1       0.04064    0.15661    0.18884   1.00
C3a      0.21835    0.31689    0.18250   1.00
H1       0.26679    0.36300    0.18030   1.00
C3b      0.11379    0.25226    0.20168   1.00
C4       0.17831    0.31063    0.19965   1.00
O_3      0.14216    0.41431    0.19866   1.00
C5       0.27766    0.26433    0.14843   1.00
H2       0.31616    0.29084    0.16066   1.00
C5       0.31283    0.28514    0.12773   1.00
H2       0.25464    0.20820    0.15047   1.00
H2       0.35028    0.34081    0.12804   1.00
H2       0.27331    0.27757    0.11634   1.00
C5       0.34820    0.24455    0.12175   1.00
H2       0.38350    0.24830    0.13404   1.00
H2       0.37791    0.26497    0.10748   1.00
H2       0.31019    0.18971    0.11885   1.00
C5       0.13090    0.44706    0.16543   1.00
H2       0.11334    0.48287    0.17029   1.00
H2       0.08515    0.39502    0.16527   1.00
C5       0.16317    0.46565    0.14416   1.00
H2       0.12828    0.47119    0.13348   1.00
C5       0.38654    0.57972    0.22003   1.00
H2       0.39966    0.56487    0.23467   1.00
H2       0.40084    0.55469    0.20804   1.00
C5       0.30903    0.55361    0.21934   1.00
H2       0.28014    0.49880    0.21497   1.00
H2       0.29810    0.58378    0.20817   1.00
O_3      0.61687    0.89814    0.18030   1.00
C4       0.63777    0.83905    0.21514   1.00
C3c      0.58632    0.77020    0.21485   1.00
H1       0.58521    0.73733    0.20279   1.00
C3d      0.63887    0.88077    0.23116   1.00
C3       0.53517    0.74292    0.22984   1.00
O2       0.49158    0.67349    0.22996   1.00
C3       0.58726    0.85409    0.24589   1.00
H1       0.58883    0.88863    0.25748   1.00
C2       0.53443    0.78476    0.24570   1.00
C5       0.62808    0.96444    0.18389   1.00
H2       0.66598    1.00262    0.17315   1.00
H2       0.64665    0.98149    0.19966   1.00
C5       0.56048    0.96233    0.18100   1.00
H2       0.52210    0.92280    0.19132   1.00
H2       0.54275    0.94587    0.16515   1.00
C5       0.56757    1.03213    0.18533   1.00
H2       0.60617    1.07194    0.17517   1.00
H2       0.58299    1.04753    0.20136   1.00
H2       0.51803    1.02997    0.18271   1.00
C5       0.74578    0.96169    0.24100   1.00
C5       0.43216    0.65727    0.21873   1.00
H2       0.77009    0.93667    0.23268   1.00
H2       0.73604    0.94266    0.25695   1.00
H2       0.44568    0.67344    0.20261   1.00
H2       0.40474    0.68316    0.22477   1.00
H2       0.28938    0.55727    0.23457   1.00
H2       0.89079    1.04077    0.23366   1.00
H2       0.86962    1.03089    0.26050   1.00
C2       0.79014    0.92682    0.16877   1.00
C3       0.80017    0.89424    0.18559   1.00
O2       0.86428    0.90471    0.18998   1.00
C3       0.72768    0.92657    0.16723   1.00
H1       0.71772    0.94952    0.15428   1.00
C3a      0.74904    0.86408    0.20058   1.00
H1       0.75909    0.84278    0.21393   1.00
C3b      0.67786    0.89845    0.18248   1.00
C4       0.68834    0.86701    0.19934   1.00
O_3      0.68530    0.95000    0.23131   1.00
C5       0.86999    0.84835    0.18355   1.00
H2       0.83144    0.80041    0.19119   1.00
C5       0.94172    0.86333    0.18924   1.00
H2       0.86299    0.84121    0.16682   1.00
H2       0.94211    0.85206    0.20566   1.00
H2       0.97679    0.91918    0.18737   1.00
C5       0.96610    0.82267    0.17639   1.00
H2       0.92779    0.76743    0.17716   1.00
H2       1.01581    0.83050    0.18209   1.00
H2       0.97431    0.83975    0.16021   1.00
C5       0.79467    1.03834    0.24114   1.00
H2       0.77575    1.06199    0.25229   1.00
H2       0.79297    1.05889    0.22593   1.00
C5       0.86815    1.05617    0.24619   1.00
H2       0.90080    1.11215    0.24825   1.00
C5       0.39621    0.76160    0.21446   1.00
H2       0.42100    0.79531    0.22771   1.00
H2       0.41990    0.79374    0.20083   1.00
C5       0.41029    0.70140    0.21492   1.00
H2       0.46171    0.71706    0.20866   1.00
H2       0.37113    0.65802    0.20584   1.00
O_3      0.07858    0.70863    0.18450   1.00
C4       0.16111    0.79884    0.21513   1.00
C3c      0.22545    0.80457    0.21288   1.00
H1       0.25478    0.82712    0.19926   1.00
C3d      0.12414    0.77020    0.23311   1.00
C3       0.25250    0.78063    0.22792   1.00
O2       0.31900    0.79548    0.22579   1.00
C3       0.15036    0.74513    0.24794   1.00
H1       0.11911    0.72139    0.26116   1.00
C2       0.21502    0.74985    0.24582   1.00
C5       0.01148    0.66352    0.19117   1.00
H2       -0.02755   0.66552    0.18135   1.00
H2       0.00374    0.67534    0.20705   1.00
C5       0.00069    0.59172    0.19041   1.00
H2       0.04088    0.59021    0.19977   1.00
H2       0.00792    0.58024    0.17446   1.00
C5       -0.07051   0.53944    0.19814   1.00
H2       -0.11089   0.54100    0.18895   1.00
H2       -0.07693   0.54945    0.21429   1.00
H2       -0.07800   0.48713    0.19705   1.00
C5       0.06092    0.81742    0.24362   1.00
C5       0.32086    0.74121    0.21578   1.00
H2       0.08801    0.86190    0.23329   1.00
H2       0.08680    0.83094    0.25869   1.00
H2       0.29860    0.73418    0.20026   1.00
H2       0.29127    0.69161    0.22400   1.00
H2       0.40994    0.68391    0.23081   1.00
H2       -0.00159   0.89941    0.23581   1.00
H2       0.01754    0.89745    0.26250   1.00
C2       0.07279    0.86364    0.16898   1.00
C3       0.11694    0.91071    0.18355   1.00
O2       0.11890    0.97205    0.18635   1.00
C3       0.06152    0.79630    0.16948   1.00
H1       0.02941    0.75953    0.15822   1.00
C3a      0.14707    0.88934    0.19843   1.00
H1       0.17762    0.92490    0.21017   1.00
C3b      0.08981    0.77463    0.18468   1.00
C4       0.13285    0.82119    0.19934   1.00
O_3      0.05846    0.75869    0.23540   1.00
C5       0.17703    1.02520    0.17684   1.00
H2       0.22494    1.02977    0.18312   1.00
C5       0.17610    1.09128    0.18091   1.00
H2       0.17578    1.01656    0.16016   1.00
H2       0.19569    1.10899    0.19653   1.00
H2       0.12179    1.07855    0.18087   1.00
C5       0.21780    1.14766    0.16528   1.00
H2       0.27040    1.15589    0.16438   1.00
H2       0.22068    1.19649    0.16970   1.00
H2       0.19363    1.13413    0.14993   1.00
C5       -0.01225   0.80197    0.24621   1.00
H2       -0.03565   0.76573    0.25909   1.00
H2       -0.04139   0.77519    0.23232   1.00
C5       -0.01620   0.86711    0.24975   1.00
H2       -0.06928   0.85343    0.25367   1.00
C5       1.02025    0.59007    0.53303   1.00
H2       1.06306    0.64348    0.53385   1.00
H2       0.97290    0.59311    0.53415   1.00
C5       1.02280    0.55824    0.51251   1.00
H2       0.99958    0.57374    0.50023   1.00
H2       0.99472    0.50162    0.51369   1.00
O_3      0.93212    0.39628    0.62143   1.00
C4       1.02983    0.53578    0.61846   1.00
C3c      1.01990    0.55677    0.59934   1.00
H1       0.97261    0.55575    0.59609   1.00
C3d      1.09222    0.53843    0.62249   1.00
C3       1.07003    0.57838    0.58408   1.00
O2       1.06018    0.60596    0.56669   1.00
C3       1.14170    0.55868    0.60720   1.00
H1       1.18774    0.55758    0.61075   1.00
C2       1.13219    0.57936    0.58771   1.00
C5       0.95797    0.35798    0.63091   1.00
H2       0.92630    0.32825    0.64412   1.00
H2       1.01126    0.39170    0.63633   1.00
C5       0.95753    0.30838    0.61532   1.00
H2       0.98759    0.33796    0.60187   1.00
H2       0.90402    0.27457    0.61016   1.00
C5       0.98725    0.26618    0.62420   1.00
H2       0.95777    0.23688    0.63771   1.00
H2       1.04144    0.29970    0.62870   1.00
H2       0.98513    0.22919    0.61272   1.00
C5       1.12854    0.56578    0.65520   1.00
C5       1.02783    0.55461    0.55181   1.00
H2       1.09183    0.58363    0.65846   1.00
H2       1.17791    0.61033    0.65027   1.00
H2       0.97670    0.51450    0.55731   1.00
H2       1.05768    0.52890    0.54803   1.00
H2       1.07656    0.57622    0.50776   1.00
H2       1.10254    0.58157    0.69718   1.00
H2       1.19152    0.63543    0.69015   1.00
C2       0.87642    0.46233    0.66469   1.00
C3       0.92265    0.53292    0.66281   1.00
O2       0.93050    0.57679    0.67844   1.00
C3       0.88013    0.41763    0.65041   1.00
H1       0.84435    0.36351    0.65111   1.00
C3a      0.97207    0.55686    0.64725   1.00
H1       1.00955    0.61059    0.64672   1.00
C3b      0.93071    0.44136    0.63535   1.00
C4       0.97730    0.51143    0.63370   1.00
O_3      1.10249    0.51349    0.64050   1.00
C5       0.89521    0.61189    0.67401   1.00
H2       0.91451    0.64222    0.65974   1.00
C5       0.90732    0.66007    0.69181   1.00
H2       0.83947    0.57569    0.67234   1.00
H2       0.95863    0.70611    0.69001   1.00
H2       0.90938    0.63391    0.70588   1.00
C5       0.85200    0.68053    0.69360   1.00
H2       0.84693    0.70160    0.67890   1.00
H2       0.86555    0.71989    0.70559   1.00
H2       0.80163    0.63604    0.69798   1.00
C5       1.14020    0.53644    0.67457   1.00
H2       1.18514    0.52959    0.67229   1.00
H2       1.09525    0.48472    0.67701   1.00
C5       1.15062    0.58203    0.69310   1.00
H2       1.16597    0.56293    0.70647   1.00
C5       0.56726    -0.01926   0.53280   1.00
H2       0.57855    -0.06163   0.53347   1.00
H2       0.61739    0.02846    0.53382   1.00
C5       0.53200    -0.02222   0.51241   1.00
H2       0.57025    0.00139    0.50003   1.00
H2       0.50292    0.00526    0.51377   1.00
O_3      0.46264    0.06662    0.62182   1.00
C4       0.50595    -0.02983   0.61846   1.00
C3c      0.53630    -0.01950   0.59924   1.00
H1       0.58213    0.02811    0.59591   1.00
C3d      0.44681    -0.09261   0.62259   1.00
C3       0.50777    -0.06964   0.58398   1.00
O2       0.54473    -0.05931   0.56646   1.00
C3       0.41754    -0.14212   0.60731   1.00
H1       0.37084    -0.18850   0.61095   1.00
C2       0.44716    -0.13222   0.58771   1.00
C5       0.39873    0.04005    0.63150   1.00
H2       0.40068    0.07150    0.64477   1.00
H2       0.37994    -0.01315   0.63687   1.00
C5       0.34870    0.03984    0.61611   1.00
H2       0.34819    0.01001    0.60260   1.00
H2       0.36764    0.09326    0.61099   1.00
C5       0.27700    0.00931    0.62521   1.00
H2       0.27723    0.03857    0.63879   1.00
H2       0.25709    -0.04479   0.62968   1.00
H2       0.24149    0.01097    0.61388   1.00
C5       0.43935    -0.12887   0.65526   1.00
C5       0.52466    -0.02742   0.55173   1.00
H2       0.49389    -0.09167   0.65837   1.00
H2       0.43502    -0.17795   0.65024   1.00
H2       0.53525    0.02350    0.55730   1.00
H2       0.46901    -0.05782   0.54811   1.00
H2       0.49657    -0.07609   0.50769   1.00
H2       0.48248    -0.10256   0.69712   1.00
H2       0.44812    -0.19139   0.69003   1.00
C2       0.58588    0.12352    0.66470   1.00
C3       0.61098    0.07796    0.66262   1.00
O2       0.64788    0.07063    0.67808   1.00
C3       0.53672    0.11921    0.65061   1.00
H1       0.51779    0.15448    0.65147   1.00
C3a      0.58549    0.02856    0.64705   1.00
H1       0.60234    -0.00843   0.64637   1.00
C3b      0.50989    0.06864    0.63555   1.00
C4       0.53412    0.02270    0.63370   1.00
O_3      0.41210    -0.10333   0.64072   1.00
C5       0.71811    0.10665    0.67345   1.00
H2       0.72900    0.08767    0.65910   1.00
C5       0.75518    0.09509    0.69107   1.00
H2       0.73696    0.16228    0.67183   1.00
H2       0.75052    0.04407    0.68918   1.00
H2       0.72728    0.09263    0.70525   1.00
C5       0.83078    0.15106    0.69268   1.00
H2       0.85653    0.15649    0.67789   1.00
H2       0.85735    0.13794    0.70454   1.00
H2       0.83615    0.20116    0.69715   1.00
C5       0.39890    -0.14105   0.67477   1.00
H2       0.34730    -0.18639   0.67259   1.00
H2       0.39154    -0.09651   0.67733   1.00
C5       0.43507    -0.15095   0.69313   1.00
H2       0.40103    -0.16670   0.70660   1.00
C5       0.41332    0.43263    0.53281   1.00
H2       0.35968    0.42137    0.53349   1.00
H2       0.41089    0.38250    0.53383   1.00
C5       0.44560    0.46786    0.51242   1.00
H2       0.43093    0.42958    0.50004   1.00
H2       0.50217    0.49692    0.51377   1.00
O_3      0.60397    0.53730    0.62180   1.00
C4       0.46421    0.49405    0.61846   1.00
C3c      0.44414    0.46367    0.59924   1.00
H1       0.44589    0.41783    0.59592   1.00
C3d      0.46062    0.55322    0.62258   1.00
C3       0.42254    0.49220    0.58399   1.00
O2       0.39586    0.45522    0.56647   1.00
C3       0.44037    0.58248    0.60730   1.00
H1       0.44073    0.62921    0.61094   1.00
C2       0.42061    0.55284    0.58771   1.00
C5       0.64134    0.60122    0.63148   1.00
H2       0.67085    0.59927    0.64474   1.00
H2       0.60696    0.62004    0.63685   1.00
C5       0.69115    0.65121    0.61607   1.00
H2       0.66182    0.65172    0.60257   1.00
H2       0.72561    0.63224    0.61096   1.00
C5       0.73237    0.72292    0.62517   1.00
H2       0.76140    0.72269    0.63875   1.00
H2       0.69820    0.74286    0.62964   1.00
H2       0.76952    0.75840    0.61384   1.00
C5       0.43187    0.56073    0.65525   1.00
C5       0.44780    0.47525    0.55174   1.00
H2       0.41450    0.50619    0.65838   1.00
H2       0.38713    0.56509    0.65024   1.00
H2       0.48813    0.46465    0.55730   1.00
H2       0.47307    0.53090    0.54811   1.00
H2       0.42718    0.50330    0.50769   1.00
H2       0.41509    0.51766    0.69712   1.00
H2       0.36066    0.55206    0.69003   1.00
C2       0.53764    0.41412    0.66470   1.00
C3       0.46697    0.38905    0.66263   1.00
O2       0.42276    0.35218    0.67810   1.00
C3       0.58247    0.46324    0.65060   1.00
H1       0.63667    0.48215    0.65146   1.00
C3a      0.44307    0.41454    0.64706   1.00
H1       0.38922    0.39771    0.64639   1.00
C3b      0.55873    0.49008    0.63555   1.00
C4       0.48858    0.46588    0.63370   1.00
O_3      0.48464    0.58795    0.64071   1.00
C5       0.38851    0.28195    0.67347   1.00
H2       0.35862    0.27105    0.65912   1.00
C5       0.33989    0.24492    0.69110   1.00
H2       0.42526    0.26307    0.67185   1.00
H2       0.29355    0.24960    0.68921   1.00
H2       0.36537    0.27284    0.70528   1.00
C5       0.32024    0.16932    0.69272   1.00
H2       0.29988    0.14355    0.67793   1.00
H2       0.28056    0.14278    0.70458   1.00
H2       0.36496    0.16392    0.69719   1.00
C5       0.46019    0.60122    0.67476   1.00
H2       0.46648    0.65282    0.67258   1.00
H2       0.51207    0.60855    0.67732   1.00
C5       0.41414    0.56508    0.69313   1.00
H2       0.43246    0.59914    0.70659   1.00
C5       0.30382    -0.32357   0.12328   1.00
H2       0.26389    -0.32784   0.11262   1.00
H2       0.28390    -0.32445   0.13874   1.00
C5       0.31503    -0.38505   0.12029   1.00
H2       0.27543    -0.43072   0.12850   1.00
H2       0.36628    -0.37233   0.12603   1.00
O_3      0.57999    0.00005    0.14161   1.00
C4       0.46446    -0.02913   0.11825   1.00
C3c      0.41611    -0.09742   0.12240   1.00
H1       0.39551    -0.11194   0.13754   1.00
C3d      0.48994    -0.01110   0.09835   1.00
C3       0.39433    -0.14803   0.10729   1.00
O2       0.34096    -0.21190   0.11183   1.00
C3       0.46934    -0.06160   0.08337   1.00
H1       0.49209    -0.04576   0.06851   1.00
C2       0.42104    -0.13103   0.08736   1.00
C5       0.64172    0.04117    0.13117   1.00
H2       0.67680    0.08813    0.13983   1.00
H2       0.63215    0.05691    0.11605   1.00
C5       0.67650    -0.00074   0.12817   1.00
H2       0.64070    -0.04859   0.12002   1.00
H2       0.68638    -0.01562   0.14337   1.00
C5       0.74317    0.03948    0.11624   1.00
H2       0.77898    0.08756    0.12423   1.00
H2       0.73310    0.05231    0.10081   1.00
H2       0.76861    0.00859    0.11459   1.00
C5       0.51239    0.09490    0.08873   1.00
C5       0.36635    -0.25376   0.11903   1.00
H2       0.48316    0.09909    0.10166   1.00
H2       0.47777    0.07392    0.07535   1.00
H2       0.39621    -0.23192   0.13324   1.00
H2       0.40077    -0.25872   0.10784   1.00
H2       0.31068    -0.39985   0.10394   1.00
H2       0.53429    0.22863    0.09865   1.00
H2       0.50229    0.20216    0.07302   1.00
C2       0.53839    0.12563    0.16407   1.00
C3       0.47828    0.10935    0.15329   1.00
O2       0.45246    0.15312    0.15356   1.00
C3       0.57104    0.08747    0.16005   1.00
H1       0.61614    0.09748    0.16842   1.00
C3a      0.45339    0.05722    0.13853   1.00
H1       0.40955    0.04801    0.12959   1.00
C3b      0.54739    0.03715    0.14491   1.00
C4       0.48823    0.02174    0.13398   1.00
O_3      0.54137    0.05434    0.09384   1.00
C5       0.39643    0.12858    0.16693   1.00
H2       0.35480    0.07696    0.16228   1.00
C5       0.37014    0.17904    0.16611   1.00
H2       0.41207    0.12554    0.18275   1.00
H2       0.33829    0.16829    0.15225   1.00
H2       0.41519    0.23097    0.16412   1.00
C5       0.32938    0.17632    0.18517   1.00
H2       0.28790    0.12305    0.18783   1.00
H2       0.30633    0.20940    0.18329   1.00
H2       0.36292    0.19540    0.19887   1.00
C5       0.57062    0.16582    0.08353   1.00
H2       0.59233    0.16336    0.06861   1.00
H2       0.61169    0.18033    0.09502   1.00
C5       0.54730    0.21907    0.08312   1.00
H2       0.58903    0.26838    0.07724   1.00
C5       1.05460    0.38315    0.04192   1.00
H2       1.05846    0.42589    0.03266   1.00
H2       1.00023    0.34236    0.04122   1.00
C5       1.10077    0.35777    0.03269   1.00
H2       1.07492    0.32266    0.01973   1.00
H2       1.11346    0.33049    0.04441   1.00
O_3      1.02970    0.40220    0.14668   1.00
C4       1.02924    0.49487    0.11831   1.00
C3c      1.01966    0.46347    0.09928   1.00
H1       0.97249    0.41703    0.09606   1.00
C3d      1.09069    0.55589    0.12209   1.00
C3       1.07076    0.49066    0.08427   1.00
O2       1.05458    0.46191    0.06524   1.00
C3       1.14218    0.58238    0.10732   1.00
H1       1.18937    0.62794    0.11117   1.00
C2       1.13363    0.55086    0.08808   1.00
C5       1.07864    0.43471    0.16214   1.00
H2       1.05561    0.42095    0.17758   1.00
H2       1.10490    0.49131    0.16055   1.00
C5       1.13093    0.41167    0.16018   1.00
H2       1.15256    0.42369    0.14456   1.00
H2       1.10426    0.35519    0.16197   1.00
C5       1.18762    0.44665    0.17604   1.00
H2       1.16632    0.43526    0.19167   1.00
H2       1.21583    0.50291    0.17382   1.00
H2       1.22453    0.42805    0.17466   1.00
C5       1.07875    0.63098    0.14232   1.00
C5       1.07320    0.41109    0.06355   1.00
H2       1.02238    0.60334    0.14049   1.00
H2       1.10179    0.67186    0.13058   1.00
H2       1.04429    0.36963    0.07480   1.00
H2       1.12877    0.43144    0.06642   1.00
H2       1.14902    0.40110    0.02651   1.00
H2       1.00022    0.66112    0.17070   1.00
H2       1.06060    0.73541    0.15627   1.00
C2       0.87899    0.41059    0.16535   1.00
C3       0.87564    0.45413    0.15064   1.00
O2       0.83576    0.48347    0.15392   1.00
C3       0.93072    0.39322    0.16350   1.00
H1       0.93360    0.35861    0.17420   1.00
C3a      0.92444    0.48046    0.13492   1.00
H1       0.92353    0.51678    0.12446   1.00
C3b      0.98047    0.42120    0.14823   1.00
C4       0.97770    0.46531    0.13380   1.00
O_3      1.10471    0.58597    0.14108   1.00
C5       0.77453    0.44862    0.14278   1.00
H2       0.78475    0.45003    0.12617   1.00
C5       0.73392    0.48476    0.14694   1.00
H2       0.74415    0.39435    0.14768   1.00
H2       0.75504    0.53138    0.13733   1.00
H2       0.74363    0.50249    0.16299   1.00
C5       0.65682    0.43881    0.14310   1.00
H2       0.64839    0.41727    0.12753   1.00
H2       0.62990    0.46842    0.14462   1.00
H2       0.63315    0.39635    0.15439   1.00
C5       1.09643    0.66371    0.16325   1.00
H2       1.15223    0.70063    0.16377   1.00
H2       1.08600    0.62321    0.17462   1.00
C5       1.05535    0.69908    0.16845   1.00
H2       1.07455    0.72828    0.18281   1.00
C5       0.60138    0.64002    0.03767   1.00
H2       0.55396    0.60164    0.02997   1.00
H2       0.63731    0.62018    0.03666   1.00
C5       0.63086    0.70920    0.02651   1.00
H2       0.66045    0.71026    0.01289   1.00
H2       0.66485    0.75152    0.03686   1.00
O_3      0.61162    0.62957    0.14306   1.00
C4       0.50507    0.53440    0.11833   1.00
C3c      0.53085    0.54726    0.09846   1.00
H1       0.57282    0.53943    0.09458   1.00
C3d      0.44972    0.54399    0.12300   1.00
C3       0.50381    0.57121    0.08342   1.00
O2       0.52598    0.57466    0.06379   1.00
C3       0.42354    0.56907    0.10816   1.00
H1       0.38270    0.57794    0.11264   1.00
C2       0.44950    0.58305    0.08805   1.00
C5       0.58842    0.65604    0.15855   1.00
H2       0.60495    0.64941    0.17390   1.00
H2       0.53164    0.63091    0.15850   1.00
C5       0.61851    0.73182    0.15457   1.00
H2       0.60358    0.73855    0.13901   1.00
H2       0.67518    0.75649    0.15484   1.00
C5       0.59381    0.76432    0.17038   1.00
H2       0.60812    0.75738    0.18597   1.00
H2       0.53743    0.74135    0.16965   1.00
H2       0.61750    0.81997    0.16750   1.00
C5       0.37571    0.46846    0.14618   1.00
C5       0.58119    0.64070    0.05979   1.00
H2       0.39720    0.43400    0.14459   1.00
H2       0.33183    0.45122    0.13552   1.00
H2       0.62479    0.65213    0.07007   1.00
H2       0.56760    0.68139    0.06217   1.00
H2       0.58931    0.71805    0.02091   1.00
H2       0.34331    0.36689    0.17727   1.00
H2       0.26807    0.35727    0.16436   1.00
C2       0.59006    0.46891    0.16530   1.00
C3       0.53916    0.42045    0.15238   1.00
O2       0.50441    0.35235    0.15763   1.00
C3       0.61415    0.53890    0.16165   1.00
H1       0.65431    0.57733    0.17094   1.00
C3a      0.51251    0.44254    0.13665   1.00
H1       0.47087    0.40469    0.12763   1.00
C3b      0.58602    0.56061    0.14641   1.00
C4       0.53469    0.51233    0.13378   1.00
O_3      0.42587    0.53703    0.14268   1.00
C5       0.52992    0.31645    0.14662   1.00
H2       0.52442    0.32063    0.12993   1.00
C5       0.48820    0.24158    0.15301   1.00
H2       0.58479    0.33615    0.15013   1.00
H2       0.43873    0.21770    0.14472   1.00
H2       0.47587    0.24055    0.16941   1.00
C5       0.52573    0.20154    0.14919   1.00
H2       0.54238    0.20760    0.13310   1.00
H2       0.49174    0.14629    0.15241   1.00
H2       0.57105    0.21943    0.15936   1.00
C5       0.35015    0.46353    0.16781   1.00
H2       0.31840    0.48840    0.16847   1.00
H2       0.39506    0.49358    0.17783   1.00
C5       0.30950    0.38919    0.17523   1.00
H2       0.28575    0.38703    0.19016   1.00
C5       0.34277    0.65535    0.70962   1.00
H2       0.33534    0.61218    0.71937   1.00
H2       0.34070    0.63799    0.69374   1.00
C5       0.28466    0.67109    0.71354   1.00
H2       0.23795    0.63534    0.70494   1.00
H2       0.30098    0.72431    0.70885   1.00
O_3      0.67496    0.91981    0.69412   1.00
C4       0.63749    0.79775    0.71508   1.00
C3c      0.56833    0.75386    0.71057   1.00
H1       0.55311    0.73678    0.69515   1.00
C3d      0.65635    0.81862    0.73532   1.00
C3       0.51780    0.73213    0.72571   1.00
O2       0.45249    0.68279    0.72066   1.00
C3       0.60603    0.79813    0.75036   1.00
H1       0.62269    0.81739    0.76553   1.00
C2       0.53578    0.75435    0.74602   1.00
C5       0.71900    0.97834    0.70550   1.00
H2       0.76694    1.01279    0.69716   1.00
H2       0.73303    0.96412    0.72020   1.00
C5       0.68148    1.01695    0.70977   1.00
H2       0.63266    0.98194    0.71760   1.00
H2       0.66830    1.03145    0.69500   1.00
C5       0.72502    1.08037    0.72276   1.00
H2       0.77406    1.11533    0.71509   1.00
H2       0.73621    1.06578    0.73779   1.00
H2       0.69736    1.10873    0.72534   1.00
C5       0.75952    0.83167    0.74426   1.00
C5       0.41450    0.71377    0.71453   1.00
H2       0.76152    0.80376    0.73064   1.00
H2       0.73643    0.79473    0.75704   1.00
H2       0.43806    0.74590    0.70080   1.00
H2       0.41221    0.74747    0.72654   1.00
H2       0.26980    0.66437    0.72992   1.00
H2       0.88963    0.84602    0.73338   1.00
H2       0.86123    0.80970    0.75851   1.00
C2       0.79255    0.87169    0.66935   1.00
C3       0.77203    0.80854    0.67890   1.00
O2       0.81196    0.77850    0.67754   1.00
C3       0.75844    0.90758    0.67454   1.00
H1       0.77174    0.95519    0.66712   1.00
C3a      0.71981    0.78378    0.69363   1.00
H1       0.70737    0.73731    0.70163   1.00
C3b      0.70805    0.88390    0.68965   1.00
C4       0.68843    0.82164    0.69936   1.00
O_3      0.72301    0.86584    0.74028   1.00
C5       0.78433    0.72518    0.66318   1.00
H2       0.73150    0.68515    0.66743   1.00
C5       0.83063    0.69392    0.66283   1.00
H2       0.78297    0.74485    0.64779   1.00
H2       0.81755    0.65895    0.67604   1.00
H2       0.88389    0.73609    0.66528   1.00
C5       0.82522    0.65587    0.64290   1.00
H2       0.77097    0.61763    0.63988   1.00
H2       0.85510    0.62908    0.64387   1.00
H2       0.84641    0.69191    0.62980   1.00
C5       0.83195    0.88536    0.75001   1.00
H2       0.83098    0.90494    0.76543   1.00
H2       0.84931    0.92909    0.73933   1.00
C5       0.88116    0.85703    0.74929   1.00
H2       0.93158    0.89518    0.75557   1.00
C5       0.42798    0.60249    0.72300   1.00
H2       0.40834    0.63851    0.72430   1.00
H2       0.44215    0.60367    0.70682   1.00
C5       0.49138    0.62685    0.73675   1.00
H2       0.53783    0.66766    0.72914   1.00
H2       0.49941    0.58336    0.74036   1.00
O_3      0.19068    0.25657    0.71467   1.00
C4       0.16044    0.36296    0.71494   1.00
C3c      0.22303    0.42333    0.71223   1.00
H1       0.25081    0.43169    0.69820   1.00
C3d      0.12459    0.35350    0.73323   1.00
C3       0.25121    0.47319    0.72757   1.00
O2       0.30829    0.53438    0.72290   1.00
C3       0.15312    0.40246    0.74869   1.00
H1       0.12492    0.39186    0.76272   1.00
C2       0.21673    0.46345    0.74628   1.00
C5       0.15240    0.20542    0.72910   1.00
H2       0.12387    0.15377    0.72210   1.00
H2       0.11498    0.21588    0.73699   1.00
C5       0.20202    0.20533    0.74459   1.00
H2       0.23188    0.25747    0.75117   1.00
H2       0.23872    0.19421    0.73658   1.00
C5       0.16424    0.15259    0.76132   1.00
H2       0.13393    0.10046    0.75484   1.00
H2       0.12932    0.16500    0.76979   1.00
H2       0.20143    0.15222    0.77225   1.00
C5       0.00891    0.29612    0.72962   1.00
C5       0.36763    0.53236    0.72836   1.00
H2       0.01214    0.30286    0.71287   1.00
H2       0.00482    0.33880    0.73663   1.00
H2       0.37052    0.49168    0.71962   1.00
H2       0.36876    0.52129    0.74485   1.00
H2       0.48567    0.64943    0.75119   1.00
H2       -0.11197   0.21067    0.70611   1.00
H2       -0.12453   0.26382    0.72427   1.00
C2       0.07584    0.20606    0.66980   1.00
C3       0.06291    0.26089    0.66901   1.00
O2       0.01056    0.25646    0.65720   1.00
C3       0.11972    0.20636    0.68514   1.00
H1       0.13204    0.16606    0.68584   1.00
C3a      0.09224    0.31320    0.68368   1.00
H1       0.07874    0.35274    0.68356   1.00
C3b      0.14704    0.25730    0.70008   1.00
C4       0.13330    0.31121    0.69946   1.00
O_3      0.06537    0.29279    0.73726   1.00
C5       0.03674    0.29376    0.63908   1.00
H2       0.07316    0.34872    0.64227   1.00
C5       -0.02404   0.28729    0.62705   1.00
H2       0.06349    0.27281    0.62994   1.00
H2       -0.03859   0.32370    0.63348   1.00
H2       -0.06792   0.23516    0.62981   1.00
C5       -0.00938   0.29996    0.60414   1.00
H2       0.03769    0.34992    0.60175   1.00
H2       -0.05248   0.30051    0.59619   1.00
H2       -0.00322   0.25863    0.59695   1.00
C5       -0.05494   0.22897    0.73472   1.00
H2       -0.06449   0.22780    0.75133   1.00
H2       -0.04461   0.18669    0.73146   1.00
C5       -0.11730   0.21895    0.72254   1.00
H2       -0.16410   0.17323    0.72815   1.00
C5       0.18502    0.57618    0.72127   1.00
H2       0.24082    0.59768    0.72310   1.00
H2       0.17423    0.56354    0.70492   1.00
C5       0.14643    0.51103    0.73436   1.00
H2       0.14362    0.46625    0.72645   1.00
H2       0.09377    0.50052    0.73754   1.00
O_3      0.06438    0.80404    0.71349   1.00
C4       0.20251    0.83959    0.71495   1.00
C3c      0.20336    0.77865    0.71187   1.00
H1       0.18638    0.75220    0.69754   1.00
C3d      0.22576    0.87377    0.73363   1.00
C3       0.22502    0.75042    0.72720   1.00
O2       0.23232    0.69537    0.72224   1.00
C3       0.24614    0.84512    0.74906   1.00
H1       0.26125    0.87191    0.76338   1.00
C2       0.24660    0.78315    0.74627   1.00
C5       0.04788    0.83928    0.72803   1.00
H2       0.02377    0.86688    0.72103   1.00
H2       0.09418    0.87708    0.73649   1.00
C5       -0.00242   0.78693    0.74286   1.00
H2       0.02092    0.75804    0.74943   1.00
H2       -0.04868   0.74985    0.73429   1.00
C5       -0.02130   0.82134    0.75968   1.00
H2       -0.04421   0.85068    0.75321   1.00
H2       0.02449    0.85661    0.76870   1.00
H2       -0.05924   0.78216    0.77011   1.00
C5       0.28050    0.98972    0.73111   1.00
C5       0.17170    0.63410    0.72690   1.00
H2       0.28614    0.98854    0.71438   1.00
H2       0.32727    0.99501    0.73848   1.00
H2       0.12834    0.63031    0.71782   1.00
H2       0.15742    0.63066    0.74328   1.00
H2       0.17342    0.51628    0.74903   1.00
H2       0.31393    1.11191    0.70857   1.00
H2       0.37839    1.12509    0.72727   1.00
C2       0.13002    0.92393    0.66979   1.00
C3       0.19871    0.93964    0.66958   1.00
O2       0.24664    0.99419    0.65842   1.00
C3       0.08575    0.87749    0.68454   1.00
H1       0.03248    0.86304    0.68478   1.00
C3a      0.22183    0.91042    0.68423   1.00
H1       0.27540    0.92596    0.68459   1.00
C3b      0.10939    0.85021    0.69949   1.00
C4       0.17792    0.86669    0.69946   1.00
O_3      0.22111    0.93110    0.73798   1.00
C5       0.26124    0.97109    0.64026   1.00
H2       0.28145    0.93599    0.64337   1.00
C5       0.31534    1.03416    0.62898   1.00
H2       0.21478    0.94385    0.63061   1.00
H2       0.36599    1.04992    0.63587   1.00
H2       0.30462    1.07635    0.63193   1.00
C5       0.31657    1.02225    0.60599   1.00
H2       0.32191    0.97667    0.60336   1.00
H2       0.36011    1.06714    0.59862   1.00
H2       0.26918    1.01492    0.59842   1.00
C5       0.27368    1.05137    0.73655   1.00
H2       0.27992    1.05925    0.75326   1.00
H2       0.22080    1.03932    0.73284   1.00
C5       0.32571    1.11592    0.72512   1.00
H2       0.32407    1.16106    0.73100   1.00
