data_IRMOF10_interpen_symm_ligand3lp_label_g_1.

_audit_creation_method             'generated by an auxiliary program of Tobunporous'

_symmetry_space_group_name_H-M     'P 1'
_symmetry_Int_Tables_number        1
_symmetry_cell_setting             triclinic

_cell_length_a                    22.6523
_cell_length_b                    22.6523
_cell_length_c                    65.9502
_cell_angle_alpha                 90.0000
_cell_angle_beta                  90.0000
_cell_angle_gamma                 120.0000

loop_
_atom_site_label
_atom_site_fract_x
_atom_site_fract_y
_atom_site_fract_z
_atom_site_occupancy
O1       0.00000    -0.00000   0.62500   1.00
Zn1      0.00000    -0.00000   0.59589   1.00
Zn1      0.94848    1.04288    0.63392   1.00
Zn1      0.09439    0.05152    0.63392   1.00
Zn1      -0.04288   0.90561    0.63392   1.00
O2       0.93860    0.02610    0.58587   1.00
O2       0.08750    0.06140    0.58587   1.00
O2       -0.02610   0.91250    0.58587   1.00
O2       0.91305    0.07161    0.61181   1.00
O2       0.00462    0.12022    0.65110   1.00
O2       0.87413    0.98074    0.65071   1.00
O2       0.15856    0.08695    0.61181   1.00
O2       0.10660    0.12587    0.65071   1.00
O2       0.11559    0.99538    0.65110   1.00
O2       -0.07161   0.84144    0.61181   1.00
O2       0.87978    0.88441    0.65110   1.00
O2       0.01926    0.89340    0.65071   1.00
C1       0.91390    0.06020    0.59358   1.00
C1       0.14630    0.08610    0.59358   1.00
C1       -0.06020   0.85370    0.59358   1.00
C1       0.06663    0.14397    0.65673   1.00
C1       0.85603    0.92267    0.65673   1.00
C1       0.07733    0.93337    0.65673   1.00
O1       -0.00000   0.00000    0.87500   1.00
Zn1      -0.00000   0.00000    0.90411   1.00
Zn1      1.04288    0.94848    0.86608   1.00
Zn1      0.05152    0.09439    0.86608   1.00
Zn1      0.90561    -0.04288   0.86608   1.00
O2       0.02610    0.93860    0.91413   1.00
O2       0.06140    0.08750    0.91413   1.00
O2       0.91250    -0.02610   0.91413   1.00
O2       0.07161    0.91305    0.88819   1.00
O2       0.12022    0.00462    0.84890   1.00
O2       0.98074    0.87413    0.84929   1.00
O2       0.08695    0.15856    0.88819   1.00
O2       0.12587    0.10660    0.84929   1.00
O2       0.99538    0.11559    0.84890   1.00
O2       0.84144    -0.07161   0.88819   1.00
O2       0.88441    0.87978    0.84890   1.00
O2       0.89340    0.01926    0.84929   1.00
C1       0.06020    0.91390    0.90642   1.00
C1       0.08610    0.14630    0.90642   1.00
C1       0.85370    -0.06020   0.90642   1.00
C1       0.14397    0.06663    0.84327   1.00
C1       0.92267    0.85603    0.84327   1.00
C1       0.93337    0.07733    0.84327   1.00
O1       0.00000    0.00000    0.37500   1.00
Zn1      0.00000    0.00000    0.40411   1.00
Zn1      0.05152    -0.04288   0.36608   1.00
Zn1      0.90561    0.94848    0.36608   1.00
Zn1      1.04288    0.09439    0.36608   1.00
O2       0.06140    -0.02610   0.41413   1.00
O2       0.91250    0.93860    0.41413   1.00
O2       0.02610    0.08750    0.41413   1.00
O2       0.08695    -0.07161   0.38819   1.00
O2       0.99538    0.87978    0.34890   1.00
O2       0.12587    0.01926    0.34929   1.00
O2       0.84144    0.91305    0.38819   1.00
O2       0.89340    0.87413    0.34929   1.00
O2       0.88441    0.00462    0.34890   1.00
O2       0.07161    0.15856    0.38819   1.00
O2       0.12022    0.11559    0.34890   1.00
O2       0.98074    0.10660    0.34929   1.00
C1       0.08610    -0.06020   0.40642   1.00
C1       0.85370    0.91390    0.40642   1.00
C1       0.06020    0.14630    0.40642   1.00
C1       0.93337    0.85603    0.34327   1.00
C1       0.14397    0.07733    0.34327   1.00
C1       0.92267    0.06663    0.34327   1.00
O1       0.00000    0.00000    0.12500   1.00
Zn1      0.00000    0.00000    0.09589   1.00
Zn1      -0.04288   0.05152    0.13392   1.00
Zn1      0.94848    0.90561    0.13392   1.00
Zn1      0.09439    1.04288    0.13392   1.00
O2       -0.02610   0.06140    0.08587   1.00
O2       0.93860    0.91250    0.08587   1.00
O2       0.08750    0.02610    0.08587   1.00
O2       -0.07161   0.08695    0.11181   1.00
O2       0.87978    0.99538    0.15110   1.00
O2       0.01926    0.12587    0.15071   1.00
O2       0.91305    0.84144    0.11181   1.00
O2       0.87413    0.89340    0.15071   1.00
O2       0.00462    0.88441    0.15110   1.00
O2       0.15856    0.07161    0.11181   1.00
O2       0.11559    0.12022    0.15110   1.00
O2       0.10660    0.98074    0.15071   1.00
C1       -0.06020   0.08610    0.09358   1.00
C1       0.91390    0.85370    0.09358   1.00
C1       0.14630    0.06020    0.09358   1.00
C1       0.85603    0.93337    0.15673   1.00
C1       0.07733    0.14397    0.15673   1.00
C1       0.06663    0.92267    0.15673   1.00
O1       0.66667    0.33333    0.95833   1.00
Zn1      0.66667    0.33333    0.92922   1.00
Zn1      0.61515    0.37621    0.96725   1.00
Zn1      0.76106    0.38485    0.96725   1.00
Zn1      -0.37621   0.23894    0.96725   1.00
O2       0.60527    0.35943    0.91920   1.00
O2       0.75417    0.39473    0.91920   1.00
O2       0.64057    0.24583    0.91920   1.00
O2       0.57972    0.40494    0.94514   1.00
O2       0.67129    0.45355    0.98443   1.00
O2       0.54080    0.31407    0.98404   1.00
O2       0.82523    0.42028    0.94514   1.00
O2       0.77327    0.45920    0.98404   1.00
O2       -0.21774   0.32871    0.98443   1.00
O2       0.59506    0.17477    0.94514   1.00
O2       0.54645    0.21774    0.98443   1.00
O2       -0.31407   0.22673    0.98404   1.00
C1       0.58057    0.39353    0.92691   1.00
C1       0.81297    0.41943    0.92691   1.00
C1       0.60647    0.18703    0.92691   1.00
C1       0.73330    0.47730    0.99006   1.00
C1       0.52270    0.25600    0.99006   1.00
C1       -0.25600   0.26670    0.99006   1.00
O1       0.66667    0.33333    0.20833   1.00
Zn1      0.66667    0.33333    0.23744   1.00
Zn1      0.70954    0.28182    0.19942   1.00
Zn1      0.71818    0.42773    0.19942   1.00
Zn1      0.57227    0.29046    0.19942   1.00
O2       0.69277    0.27193    0.24746   1.00
O2       0.72807    0.42083    0.24746   1.00
O2       0.57917    0.30723    0.24746   1.00
O2       0.73828    0.24638    0.22152   1.00
O2       0.78688    0.33796    0.18224   1.00
O2       0.64740    0.20747    0.18263   1.00
O2       0.75362    0.49189    0.22152   1.00
O2       0.79253    0.43994    0.18263   1.00
O2       0.66204    0.44893    0.18224   1.00
O2       0.50811    0.26172    0.22152   1.00
O2       0.55107    0.21312    0.18224   1.00
O2       0.56006    0.35260    0.18263   1.00
C1       0.72687    0.24723    0.23975   1.00
C1       0.75277    0.47963    0.23975   1.00
C1       0.52037    0.27313    0.23975   1.00
C1       0.81063    0.39997    0.17661   1.00
C1       0.58933    0.18937    0.17661   1.00
C1       0.60003    0.41067    0.17661   1.00
O1       0.66667    0.33333    0.70833   1.00
Zn1      0.66667    0.33333    0.73744   1.00
Zn1      0.71818    0.29046    0.69942   1.00
Zn1      0.57227    0.28182    0.69942   1.00
Zn1      0.70954    0.42773    0.69942   1.00
O2       0.72807    0.30723    0.74746   1.00
O2       0.57917    0.27193    0.74746   1.00
O2       0.69277    0.42083    0.74746   1.00
O2       0.75362    0.26172    0.72152   1.00
O2       0.66204    0.21312    0.68224   1.00
O2       0.79253    0.35260    0.68263   1.00
O2       0.50811    0.24638    0.72152   1.00
O2       0.56006    0.20747    0.68263   1.00
O2       0.55107    0.33796    0.68224   1.00
O2       0.73828    0.49189    0.72152   1.00
O2       0.78688    0.44893    0.68224   1.00
O2       0.64740    0.43994    0.68263   1.00
C1       0.75277    0.27313    0.73975   1.00
C1       0.52037    0.24723    0.73975   1.00
C1       0.72687    0.47963    0.73975   1.00
C1       0.60003    0.18937    0.67661   1.00
C1       0.81063    0.41067    0.67661   1.00
C1       0.58933    0.39997    0.67661   1.00
O1       0.66667    0.33333    0.45833   1.00
Zn1      0.66667    0.33333    0.42922   1.00
Zn1      -0.37621   0.38485    0.46725   1.00
Zn1      0.61515    0.23894    0.46725   1.00
Zn1      0.76106    0.37621    0.46725   1.00
O2       0.64057    0.39473    0.41920   1.00
O2       0.60527    0.24583    0.41920   1.00
O2       0.75417    0.35943    0.41920   1.00
O2       0.59506    0.42028    0.44514   1.00
O2       0.54645    0.32871    0.48443   1.00
O2       -0.31407   0.45920    0.48404   1.00
O2       0.57972    0.17477    0.44514   1.00
O2       0.54080    0.22673    0.48404   1.00
O2       0.67129    0.21774    0.48443   1.00
O2       0.82523    0.40494    0.44514   1.00
O2       -0.21774   0.45355    0.48443   1.00
O2       0.77327    0.31407    0.48404   1.00
C1       0.60647    0.41943    0.42691   1.00
C1       0.58057    0.18703    0.42691   1.00
C1       0.81297    0.39353    0.42691   1.00
C1       0.52270    0.26670    0.49006   1.00
C1       -0.25600   0.47730    0.49006   1.00
C1       0.73330    0.25600    0.49006   1.00
O1       0.33333    0.66667    0.29167   1.00
Zn1      0.33333    0.66667    0.26256   1.00
Zn1      0.28182    0.70954    0.30058   1.00
Zn1      0.42773    0.71818    0.30058   1.00
Zn1      0.29046    0.57227    0.30058   1.00
O2       0.27193    0.69277    0.25254   1.00
O2       0.42083    0.72807    0.25254   1.00
O2       0.30723    0.57917    0.25254   1.00
O2       0.24638    0.73828    0.27848   1.00
O2       0.33796    0.78688    0.31776   1.00
O2       0.20747    0.64740    0.31737   1.00
O2       0.49189    0.75362    0.27848   1.00
O2       0.43994    0.79253    0.31737   1.00
O2       0.44893    0.66204    0.31776   1.00
O2       0.26172    0.50811    0.27848   1.00
O2       0.21312    0.55107    0.31776   1.00
O2       0.35260    0.56006    0.31737   1.00
C1       0.24723    0.72687    0.26025   1.00
C1       0.47963    0.75277    0.26025   1.00
C1       0.27313    0.52037    0.26025   1.00
C1       0.39997    0.81063    0.32339   1.00
C1       0.18937    0.58933    0.32339   1.00
C1       0.41067    0.60003    0.32339   1.00
O1       0.33333    0.66667    0.54167   1.00
Zn1      0.33333    0.66667    0.57078   1.00
Zn1      0.37621    0.61515    0.53275   1.00
Zn1      0.38485    0.76106    0.53275   1.00
Zn1      0.23894    -0.37621   0.53275   1.00
O2       0.35943    0.60527    0.58080   1.00
O2       0.39473    0.75417    0.58080   1.00
O2       0.24583    0.64057    0.58080   1.00
O2       0.40494    0.57972    0.55486   1.00
O2       0.45355    0.67129    0.51557   1.00
O2       0.31407    0.54080    0.51596   1.00
O2       0.42028    0.82523    0.55486   1.00
O2       0.45920    0.77327    0.51596   1.00
O2       0.32871    -0.21774   0.51557   1.00
O2       0.17477    0.59506    0.55486   1.00
O2       0.21774    0.54645    0.51557   1.00
O2       0.22673    -0.31407   0.51596   1.00
C1       0.39353    0.58057    0.57309   1.00
C1       0.41943    0.81297    0.57309   1.00
C1       0.18703    0.60647    0.57309   1.00
C1       0.47730    0.73330    0.50994   1.00
C1       0.25600    0.52270    0.50994   1.00
C1       0.26670    -0.25600   0.50994   1.00
O1       0.33333    0.66667    0.04167   1.00
Zn1      0.33333    0.66667    0.07078   1.00
Zn1      0.38485    -0.37621   0.03275   1.00
Zn1      0.23894    0.61515    0.03275   1.00
Zn1      0.37621    0.76106    0.03275   1.00
O2       0.39473    0.64057    0.08080   1.00
O2       0.24583    0.60527    0.08080   1.00
O2       0.35943    0.75417    0.08080   1.00
O2       0.42028    0.59506    0.05486   1.00
O2       0.32871    0.54645    0.01557   1.00
O2       0.45920    -0.31407   0.01596   1.00
O2       0.17477    0.57972    0.05486   1.00
O2       0.22673    0.54080    0.01596   1.00
O2       0.21774    0.67129    0.01557   1.00
O2       0.40494    0.82523    0.05486   1.00
O2       0.45355    -0.21774   0.01557   1.00
O2       0.31407    0.77327    0.01596   1.00
C1       0.41943    0.60647    0.07309   1.00
C1       0.18703    0.58057    0.07309   1.00
C1       0.39353    0.81297    0.07309   1.00
C1       0.26670    0.52270    0.00994   1.00
C1       0.47730    -0.25600   0.00994   1.00
C1       0.25600    0.73330    0.00994   1.00
O1       0.33333    0.66667    0.79167   1.00
Zn1      0.33333    0.66667    0.76256   1.00
Zn1      0.29046    0.71818    0.80058   1.00
Zn1      0.28182    0.57227    0.80058   1.00
Zn1      0.42773    0.70954    0.80058   1.00
O2       0.30723    0.72807    0.75254   1.00
O2       0.27193    0.57917    0.75254   1.00
O2       0.42083    0.69277    0.75254   1.00
O2       0.26172    0.75362    0.77848   1.00
O2       0.21312    0.66204    0.81776   1.00
O2       0.35260    0.79253    0.81737   1.00
O2       0.24638    0.50811    0.77848   1.00
O2       0.20747    0.56006    0.81737   1.00
O2       0.33796    0.55107    0.81776   1.00
O2       0.49189    0.73828    0.77848   1.00
O2       0.44893    0.78688    0.81776   1.00
O2       0.43994    0.64740    0.81737   1.00
C1       0.27313    0.75277    0.76025   1.00
C1       0.24723    0.52037    0.76025   1.00
C1       0.47963    0.72687    0.76025   1.00
C1       0.18937    0.60003    0.82339   1.00
C1       0.41067    0.81063    0.82339   1.00
C1       0.39997    0.58933    0.82339   1.00
C4       -0.13722   0.69122    0.54962   1.00
C4       -0.16661   0.63686    0.53519   1.00
C3       -0.08619   0.69995    0.56377   1.00
C3       -0.15246   0.58244    0.53468   1.00
C3       -0.16053   0.73926    0.55030   1.00
C3       -0.21266   0.63637    0.52031   1.00
C2       -0.08281   0.80052    0.57901   1.00
C2       -0.22929   0.52798    0.50579   1.00
C3       -0.05998   0.75284    0.57813   1.00
C3       -0.18243   0.52982    0.52027   1.00
C3       -0.13252   0.79301    0.56465   1.00
C3       -0.24453   0.58135    0.50649   1.00
H1       -0.06639   0.66827    0.56400   1.00
H1       -0.12031   0.57919    0.54483   1.00
C5       -0.21144   0.73346    0.53657   1.00
C5       -0.22718   0.69036    0.51941   1.00
H1       -0.02350   0.75631    0.58808   1.00
H1       -0.16985   0.49211    0.52052   1.00
H1       -0.14837   0.82818    0.56459   1.00
H1       -0.28065   0.57949    0.49678   1.00
O3       -0.24178   0.77254    0.53943   1.00
O3       -0.26037   0.69804    0.50289   1.00
Si1      -0.31276   0.74176    0.55228   1.00
Si1      -0.21572   0.73899    0.48301   1.00
C6       -0.31651   0.81769    0.55347   1.00
C6       -0.37837   0.68028    0.53688   1.00
C6       -0.30724   0.71318    0.57675   1.00
C6       -0.12708   0.76909    0.48324   1.00
C6       -0.25413   0.67931    0.46338   1.00
C6       -0.23097   0.80688    0.47849   1.00
C6       -0.24888   0.88341    0.55986   1.00
H2       -0.32449   0.82565    0.53760   1.00
C6       -0.37464   0.82077    0.56556   1.00
H2       -0.35767   0.69726    0.52168   1.00
C6       -0.39514   0.60450    0.53840   1.00
C6       -0.44928   0.67655    0.53690   1.00
H2       -0.25960   0.75576    0.58245   1.00
C6       -0.36362   0.70265    0.59246   1.00
C6       -0.30089   0.64749    0.57909   1.00
C6       -0.08358   0.81821    0.50075   1.00
C6       -0.10079   0.71744    0.48038   1.00
H2       -0.10994   0.80002    0.46949   1.00
H2       -0.23990   0.64083    0.46664   1.00
C6       -0.33397   0.63983    0.46291   1.00
C6       -0.22980   0.70437    0.44123   1.00
H2       -0.27967   0.78313    0.47047   1.00
C6       -0.24238   0.84060    0.49757   1.00
C6       -0.17953   0.86693    0.46466   1.00
H2       -0.20640   0.89216    0.55004   1.00
H2       -0.23491   0.87964    0.57548   1.00
H2       -0.25398   0.92882    0.55872   1.00
H2       -0.38777   0.85582    0.55811   1.00
H2       -0.42105   0.77153    0.56665   1.00
H2       -0.35913   0.83977    0.58100   1.00
H2       -0.42546   0.57498    0.52538   1.00
H2       -0.34931   0.60034    0.53839   1.00
H2       -0.42447   0.58003    0.55207   1.00
H2       -0.44438   0.72561    0.53296   1.00
H2       -0.48363   0.64013    0.52561   1.00
H2       -0.47409   0.66040    0.55168   1.00
H2       -0.41459   0.66906    0.58639   1.00
H2       -0.35886   0.68042    0.60668   1.00
H2       -0.35945   0.75092    0.59673   1.00
H2       -0.35062   0.60102    0.57950   1.00
H2       -0.27197   0.64121    0.56704   1.00
H2       -0.27497   0.64966    0.59331   1.00
H2       -0.08529   0.79031    0.51441   1.00
H2       -0.03004   0.84820    0.49625   1.00
H2       -0.10026   0.85425    0.50469   1.00
H2       -0.04558   0.74459    0.47800   1.00
H2       -0.11094   0.68486    0.49356   1.00
H2       -0.12320   0.68497    0.46712   1.00
H2       -0.35300   0.59640    0.45253   1.00
H2       -0.35538   0.61929    0.47784   1.00
H2       -0.35419   0.67218    0.45791   1.00
H2       -0.17434   0.73094    0.43997   1.00
H2       -0.24970   0.66099    0.43081   1.00
H2       -0.24779   0.73836    0.43595   1.00
H2       -0.19762   0.86420    0.50737   1.00
H2       -0.25544   0.87938    0.49342   1.00
H2       -0.28466   0.80230    0.50641   1.00
H2       -0.19990   0.90006    0.46051   1.00
H2       -0.13086   0.89838    0.47235   1.00
H2       -0.16962   0.84844    0.45052   1.00
C4       0.31085    0.17194    0.55030   1.00
C4       0.36477    0.19634    0.53573   1.00
C3       0.31854    0.19994    0.57004   1.00
C3       0.43316    0.24689    0.54005   1.00
C3       0.24564    0.11573    0.54512   1.00
C3       0.35014    0.16923    0.51564   1.00
C2       0.20025    0.11751    0.57925   1.00
C2       0.47125    0.24189    0.50555   1.00
C3       0.26492    0.17327    0.58417   1.00
C3       0.48483    0.26952    0.52533   1.00
C3       0.19183    0.09039    0.55946   1.00
C3       0.40351    0.19062    0.50129   1.00
H1       0.36326    0.24069    0.57472   1.00
H1       0.44754    0.26845    0.55405   1.00
C5       0.23452    0.08538    0.52563   1.00
C5       0.28256    0.12052    0.51000   1.00
H1       0.27362    0.19530    0.59827   1.00
H1       0.53323    0.30662    0.52927   1.00
H1       0.14481    0.05127    0.55533   1.00
H1       0.39304    0.16758    0.48738   1.00
O3       0.17567    0.02459    0.52185   1.00
O3       0.26486    0.10382    0.48989   1.00
Si1      0.17506    -0.04735   0.52471   1.00
Si1      0.24470    0.15147    0.47634   1.00
C6       0.08651    -0.10188   0.52143   1.00
C6       0.22146    -0.05479   0.50437   1.00
C6       0.20166    -0.05702   0.54905   1.00
C6       0.24937    0.22416    0.48789   1.00
C6       0.30248    0.17708    0.45604   1.00
C6       0.16220    0.09804    0.46664   1.00
C6       0.03926    -0.08260   0.53372   1.00
H2       0.07937    -0.09336   0.50554   1.00
C6       0.05326    -0.18121   0.52378   1.00
H2       0.21645    -0.02313   0.49280   1.00
C6       0.29987    -0.02551   0.50712   1.00
C6       0.19447    -0.12635   0.49430   1.00
H2       0.17219    -0.04270   0.55897   1.00
C6       0.18343    -0.13075   0.55560   1.00
C6       0.27847    -0.01127   0.55538   1.00
C6       0.20659    0.21360    0.50756   1.00
C6       0.32077    0.28885    0.49171   1.00
H2       0.22641    0.24111    0.47640   1.00
H2       0.35146    0.21222    0.46298   1.00
C6       0.31245    0.11996    0.44602   1.00
C6       0.29224    0.21693    0.43829   1.00
H2       0.17055    0.07368    0.45352   1.00
C6       0.11223    0.03799    0.48054   1.00
C6       0.12121    0.13209    0.45859   1.00
H2       0.05137    -0.03036   0.53057   1.00
H2       0.04435    -0.08722   0.55004   1.00
H2       -0.01432   -0.11562   0.52966   1.00
H2       0.01010    -0.20719   0.51338   1.00
H2       0.08852    -0.19935   0.52050   1.00
H2       0.03316    -0.19865   0.53902   1.00
H2       0.32460    -0.02006   0.49244   1.00
H2       0.32480    0.02498    0.51397   1.00
H2       0.31013    -0.05921   0.51644   1.00
H2       0.14210    -0.14743   0.48899   1.00
H2       0.22470    -0.12304   0.48095   1.00
H2       0.19687    -0.16224   0.50486   1.00
H2       0.20131    -0.15384   0.54442   1.00
H2       0.20597    -0.13113   0.57025   1.00
H2       0.12883    -0.16345   0.55765   1.00
H2       0.30935    -0.03372   0.55088   1.00
H2       0.30249    0.03960    0.54901   1.00
H2       0.28254    -0.00532   0.57188   1.00
H2       0.23294    0.21091    0.52104   1.00
H2       0.19755    0.25630    0.50974   1.00
H2       0.15684    0.16750    0.50689   1.00
H2       0.31498    0.33219    0.49620   1.00
H2       0.34889    0.28103    0.50379   1.00
H2       0.35242    0.30477    0.47811   1.00
H2       0.35708    0.14249    0.43606   1.00
H2       0.32129    0.09022    0.45743   1.00
H2       0.26840    0.08493    0.43695   1.00
H2       0.28685    0.25937    0.44386   1.00
H2       0.33647    0.23860    0.42817   1.00
H2       0.24742    0.18356    0.42921   1.00
H2       0.10171    0.05587    0.49470   1.00
H2       0.06373    0.00510    0.47295   1.00
H2       0.13420    0.00637    0.48431   1.00
H2       0.07592    0.09522    0.45023   1.00
H2       0.10418    0.15189    0.47102   1.00
H2       0.15147    0.17390    0.44818   1.00
C4       0.83258    0.14491    0.55085   1.00
C4       0.80814    0.17343    0.53595   1.00
C3       0.87300    0.18195    0.56775   1.00
C3       0.82677    0.24334    0.53545   1.00
C3       0.81692    0.07584    0.54870   1.00
C3       0.76235    0.13015    0.52065   1.00
C2       0.88287    0.08459    0.57974   1.00
C2       0.75773    0.22751    0.50506   1.00
C3       0.89779    0.15279    0.58175   1.00
C3       0.80179    0.26954    0.52055   1.00
C3       0.84135    0.04697    0.56319   1.00
C3       0.74007    0.15814    0.50526   1.00
H1       0.88541    0.23113    0.57044   1.00
H1       0.85937    0.27736    0.54582   1.00
C5       0.77671    0.03596    0.53214   1.00
C5       0.73947    0.05934    0.52065   1.00
H1       0.92720    0.18221    0.59359   1.00
H1       0.81654    0.32039    0.52104   1.00
H1       0.82813    -0.00320   0.56176   1.00
H1       0.71082    0.12738    0.49368   1.00
O3       0.77124    -0.02636   0.52823   1.00
O3       0.68543    0.01468    0.50862   1.00
Si1      0.82326    -0.03160   0.51214   1.00
Si1      0.60791    -0.01528   0.51709   1.00
C6       0.79864    -0.11761   0.51687   1.00
C6       0.79874    -0.02121   0.48761   1.00
C6       0.91008    0.02324    0.51805   1.00
C6       0.59674    0.01331    0.54098   1.00
C6       0.56935    0.00876    0.49822   1.00
C6       0.56858    -0.10488   0.51692   1.00
C6       0.79351    -0.13838   0.53977   1.00
H2       0.74630    -0.14449   0.51122   1.00
C6       0.83558    -0.15207   0.50611   1.00
H2       0.74494    -0.03757   0.48979   1.00
C6       0.83191    0.05246    0.47859   1.00
C6       0.80072    -0.06652   0.47000   1.00
H2       0.91159    0.01368    0.53424   1.00
C6       0.96334    0.00795    0.50772   1.00
C6       0.94185    0.10246    0.51561   1.00
C6       0.63261    0.00288    0.55978   1.00
C6       0.60692    0.08677    0.54301   1.00
H2       0.54224    -0.01989   0.54365   1.00
H2       0.59377    0.06399    0.49988   1.00
C6       0.58321    -0.00346   0.47577   1.00
C6       0.49085    -0.01952   0.49999   1.00
H2       0.55284    -0.11879   0.50117   1.00
C6       0.61551    -0.13528   0.52162   1.00
C6       0.50273    -0.14655   0.53002   1.00
H2       0.75937    -0.12618   0.54815   1.00
H2       0.84345    -0.11217   0.54712   1.00
H2       0.77303    -0.19327   0.54141   1.00
H2       0.79938    -0.20602   0.50336   1.00
H2       0.85769    -0.12891   0.49158   1.00
H2       0.87644    -0.15020   0.51539   1.00
H2       0.80261    0.05385    0.46559   1.00
H2       0.83310    0.08905    0.48952   1.00
H2       0.88380    0.06991    0.47336   1.00
H2       0.77010    -0.12068   0.47359   1.00
H2       0.77943    -0.05890   0.45600   1.00
H2       0.85295    -0.05427   0.46676   1.00
H2       0.95737    0.00492    0.49126   1.00
H2       1.01588    0.04714    0.51115   1.00
H2       0.95860    -0.03938   0.51329   1.00
H2       0.96085    0.11970    0.50028   1.00
H2       0.90647    0.12014    0.51902   1.00
H2       0.98512    0.12932    0.52593   1.00
H2       0.68555    0.04341    0.56107   1.00
H2       0.60699    0.00338    0.57379   1.00
H2       0.63155    -0.04568   0.55929   1.00
H2       0.58897    0.09326    0.55780   1.00
H2       0.66021    0.12623    0.54178   1.00
H2       0.57792    0.09677    0.53168   1.00
H2       0.56725    0.02333    0.46527   1.00
H2       0.63752    0.01614    0.47310   1.00
H2       0.55571    -0.05743   0.47176   1.00
H2       0.47660    -0.01132   0.51510   1.00
H2       0.47474    0.00659    0.48927   1.00
H2       0.46185    -0.07396   0.49656   1.00
H2       0.63689    -0.12255   0.53687   1.00
H2       0.58820    -0.19072   0.52004   1.00
H2       0.65764    -0.11529   0.51095   1.00
H2       0.47760    -0.20081   0.52625   1.00
H2       0.51460    -0.14147   0.54621   1.00
H2       0.46555    -0.13022   0.52735   1.00
C4       0.68827    -0.14606   0.94933   1.00
C4       0.63541    -0.17417   0.96426   1.00
C3       0.70421    -0.18626   0.93639   1.00
C3       0.59745    -0.24475   0.96899   1.00
C3       0.72846    -0.07374   0.94731   1.00
C3       0.61895    -0.12979   0.97514   1.00
C2       0.79818    -0.08526   0.92022   1.00
C2       0.53032    -0.22684   0.99498   1.00
C3       0.75788    -0.15675   0.92231   1.00
C3       0.54592    -0.27048   0.98379   1.00
C3       0.78156    -0.04498   0.93275   1.00
C3       0.56885    -0.15637   0.99059   1.00
H1       0.67715    -0.23816   0.93676   1.00
H1       0.60641    -0.27949   0.96192   1.00
C5       0.71517    -0.03062   0.95978   1.00
C5       0.65289    -0.05911   0.97069   1.00
H1       0.76736    -0.18838   0.91345   1.00
H1       0.51975    -0.32206   0.98645   1.00
H1       0.80872    0.00692    0.93109   1.00
H1       0.56071    -0.12340   0.99913   1.00
O3       0.76076    0.03846    0.96019   1.00
O3       0.62890    -0.01782   0.97802   1.00
Si1      0.82058    0.07005    0.97741   1.00
Si1      0.56932    -0.01318   0.96542   1.00
C6       0.86594    0.15362    0.96754   1.00
C6       0.78153    0.06821    1.00072   1.00
C6       0.87152    0.03123    0.97773   1.00
C6       0.53618    -0.06374   0.94338   1.00
C6       0.50406    -0.03778   0.98343   1.00
C6       0.60077    0.07339    0.95956   1.00
C6       0.88066    0.15934    0.94417   1.00
H2       0.82979    0.17169    0.96969   1.00
C6       0.93423    0.20915    0.97757   1.00
H2       0.73598    0.06908    0.99577   1.00
C6       0.75539    0.00347    1.01442   1.00
C6       0.81932    0.13014    1.01551   1.00
H2       0.88331    0.03116    0.96165   1.00
C6       0.94188    0.07024    0.98891   1.00
C6       0.84004    -0.04443   0.98529   1.00
C6       0.58707    -0.05473   0.92601   1.00
C6       0.48624    -0.14235   0.94552   1.00
H2       0.50402    -0.04502   0.93707   1.00
H2       0.48507    -0.09214   0.98555   1.00
C6       0.52667    -0.00528   1.00502   1.00
C6       0.44110    -0.03074   0.97736   1.00
H2       0.59292    0.09467    0.97348   1.00
C6       0.67874    0.11691    0.95522   1.00
C6       0.56451    0.09103    0.94233   1.00
H2       0.83377    0.13052    0.93542   1.00
H2       0.91494    0.14016    0.94027   1.00
H2       0.90415    0.21223    0.93904   1.00
H2       0.93897    0.25945    0.97614   1.00
H2       0.93740    0.20007    0.99362   1.00
H2       0.97909    0.21262    0.97023   1.00
H2       0.72009    0.00229    1.02596   1.00
H2       0.72752    -0.04351   1.00577   1.00
H2       0.79750    0.00292    1.02230   1.00
H2       0.83124    0.17799    1.00815   1.00
H2       0.78754    0.12515    1.02863   1.00
H2       0.86642    0.13401    1.02121   1.00
H2       0.93564    0.08295    1.00445   1.00
H2       0.96766    0.04030    0.98956   1.00
H2       0.97698    0.11677    0.98096   1.00
H2       0.84463    -0.04741   1.00169   1.00
H2       0.78656    -0.07622   0.98158   1.00
H2       0.86680    -0.06824   0.97830   1.00
H2       0.61189    -0.08457   0.92881   1.00
H2       0.56015    -0.07212   0.91155   1.00
H2       0.62647    -0.00170   0.92398   1.00
H2       0.46289    -0.16460   0.93090   1.00
H2       0.51200    -0.16923   0.95071   1.00
H2       0.44430    -0.15396   0.95590   1.00
H2       0.48521    -0.03202   1.01593   1.00
H2       0.56999    -0.00922   1.01063   1.00
H2       0.54088    0.04841    1.00513   1.00
H2       0.42047    -0.05401   0.96264   1.00
H2       0.40002    -0.05663   0.98844   1.00
H2       0.45413    0.02264    0.97682   1.00
H2       0.69375    0.09888    0.94193   1.00
H2       0.69472    0.17062    0.95292   1.00
H2       0.70723    0.11445    0.96812   1.00
H2       0.58162    0.14556    0.94228   1.00
H2       0.57552    0.07797    0.92738   1.00
H2       0.50936    0.06430    0.94435   1.00
C4       0.17194    0.31085    0.94970   1.00
C4       0.19634    0.36477    0.96427   1.00
C3       0.19987    0.31858    0.92994   1.00
C3       0.24681    0.43318    0.95994   1.00
C3       0.11580    0.24561    0.95489   1.00
C3       0.16931    0.35012    0.98437   1.00
C2       0.11751    0.20025    0.92075   1.00
C2       0.24189    0.47125    0.99445   1.00
C3       0.17320    0.26495    0.91582   1.00
C3       0.26944    0.48485    0.97466   1.00
C3       0.09046    0.19180    0.94055   1.00
C3       0.19070    0.40348    0.99872   1.00
H1       0.24056    0.36332    0.92526   1.00
H1       0.26830    0.44758    0.94593   1.00
C5       0.08553    0.23446    0.97439   1.00
C5       0.12069    0.28252    0.99001   1.00
H1       0.19518    0.27368    0.90171   1.00
H1       0.30648    0.53328    0.97071   1.00
H1       0.05140    0.14476    0.94469   1.00
H1       0.16772    0.39299    1.01264   1.00
O3       0.02479    0.17556    0.97819   1.00
O3       0.10409    0.26481    1.01013   1.00
Si1      -0.04721   0.17485    0.97536   1.00
Si1      0.15185    0.24473    1.02365   1.00
C6       -0.10163   0.08628    0.97865   1.00
C6       -0.05464   0.22120    0.99571   1.00
C6       -0.05702   0.20141    0.95103   1.00
C6       0.22454    0.24951    1.01207   1.00
C6       0.17748    0.30251    1.04396   1.00
C6       0.09854    0.16222    1.03336   1.00
C6       -0.08232   0.03910    0.96634   1.00
H2       -0.09303   0.07917    0.99453   1.00
C6       -0.18098   0.05294    0.97633   1.00
H2       -0.02290   0.21625    1.00727   1.00
C6       -0.02546   0.29960    0.99297   1.00
C6       -0.12617   0.19413    1.00582   1.00
H2       -0.04269   0.17199    0.94109   1.00
C6       -0.13081   0.18309    0.94451   1.00
C6       -0.01138   0.27823    0.94469   1.00
C6       0.21395    0.20674    0.99240   1.00
C6       0.28915    0.32095    1.00823   1.00
H2       0.24159    0.22659    1.02354   1.00
H2       0.21255    0.35151    1.03701   1.00
C6       0.12034    0.31239    1.05401   1.00
C6       0.21745    0.29235    1.06168   1.00
H2       0.07421    0.17052    1.04649   1.00
C6       0.03846    0.11220    1.01948   1.00
C6       0.13271    0.12131    1.04138   1.00
H2       -0.03005   0.05127    0.96947   1.00
H2       -0.08702   0.04417    0.95002   1.00
H2       -0.11527   -0.01449   0.97040   1.00
H2       -0.20688   0.00978    0.98673   1.00
H2       -0.19918   0.08815    0.97962   1.00
H2       -0.19847   0.03283    0.96109   1.00
H2       -0.01998   0.32432    1.00765   1.00
H2       0.02500    0.32459    0.98610   1.00
H2       -0.05924   0.30980    0.98367   1.00
H2       -0.14716   0.14177    1.01112   1.00
H2       -0.12285   0.22434    1.01917   1.00
H2       -0.16214   0.19648    0.99527   1.00
H2       -0.15390   0.20093    0.95571   1.00
H2       -0.13128   0.20561    0.92987   1.00
H2       -0.16346   0.12847    0.94247   1.00
H2       -0.03388   0.30906    0.94921   1.00
H2       0.03952    0.30231    0.95105   1.00
H2       -0.00550   0.28231    0.92820   1.00
H2       0.21117    0.23306    0.97892   1.00
H2       0.25670    0.19777    0.99019   1.00
H2       0.16790    0.15696    0.99308   1.00
H2       0.33252    0.31522    1.00372   1.00
H2       0.28124    0.34903    0.99617   1.00
H2       0.30510    0.35260    1.02183   1.00
H2       0.14286    0.35703    1.06396   1.00
H2       0.09052    0.32118    1.04261   1.00
H2       0.08539    0.26833    1.06308   1.00
H2       0.25990    0.28701    1.05609   1.00
H2       0.23911    0.33657    1.07180   1.00
H2       0.18416    0.24751    1.07077   1.00
H2       0.05632    0.10170    1.00531   1.00
H2       0.00566    0.06368    1.02707   1.00
H2       0.00678    0.13410    1.01572   1.00
H2       0.09592    0.07600    1.04975   1.00
H2       0.15250    0.10432    1.02894   1.00
H2       0.17455    0.15161    1.05178   1.00
C4       0.14491    0.83258    0.94915   1.00
C4       0.17343    0.80814    0.96405   1.00
C3       0.18195    0.87301    0.93225   1.00
C3       0.24334    0.82678    0.96455   1.00
C3       0.07583    0.81691    0.95130   1.00
C3       0.13015    0.76234    0.97935   1.00
C2       0.08459    0.88287    0.92026   1.00
C2       0.22751    0.75773    0.99494   1.00
C3       0.15280    0.89780    0.91826   1.00
C3       0.26954    0.80179    0.97945   1.00
C3       0.04697    0.84134    0.93681   1.00
C3       0.15814    0.74006    0.99473   1.00
H1       0.23113    0.88543    0.92957   1.00
H1       0.27736    0.85939    0.95418   1.00
C5       0.03596    0.77669    0.96786   1.00
C5       0.05934    0.73946    0.97935   1.00
H1       0.18222    0.92722    0.90641   1.00
H1       0.32039    0.81655    0.97896   1.00
H1       -0.00320   0.82811    0.93823   1.00
H1       0.12737    0.71080    1.00631   1.00
O3       -0.02637   0.77121    0.97177   1.00
O3       0.01468    0.68541    0.99137   1.00
Si1      -0.03162   0.82322    0.98786   1.00
Si1      -0.01527   0.60789    0.98290   1.00
C6       -0.11764   0.79859    0.98312   1.00
C6       -0.02124   0.79869    1.01238   1.00
C6       0.02321    0.91005    0.98195   1.00
C6       0.01333    0.59673    0.95902   1.00
C6       0.00877    0.56933    1.00177   1.00
C6       -0.10488   0.56855    0.98307   1.00
C6       -0.13840   0.79347    0.96022   1.00
H2       -0.14451   0.74625    0.98877   1.00
C6       -0.15211   0.83552    0.99389   1.00
H2       -0.03759   0.74490    1.01020   1.00
C6       0.05242    0.83187    1.02141   1.00
C6       -0.06656   0.80066    1.03000   1.00
H2       0.01365    0.91155    0.96576   1.00
C6       0.00791    0.96330    0.99228   1.00
C6       0.10243    0.94182    0.98439   1.00
C6       0.00291    0.63261    0.94021   1.00
C6       0.08679    0.60692    0.95698   1.00
H2       -0.01986   0.54224    0.95634   1.00
H2       0.06400    0.59376    1.00012   1.00
C6       -0.00347   0.58318    1.02422   1.00
C6       -0.01950   0.49083    1.00000   1.00
H2       -0.11879   0.55280    0.99882   1.00
C6       -0.13528   0.61548    0.97836   1.00
C6       -0.14653   0.50271    0.96996   1.00
H2       -0.12619   0.75933    0.95184   1.00
H2       -0.11219   0.84341    0.95288   1.00
H2       -0.19329   0.77298    0.95858   1.00
H2       -0.20606   0.79932    0.99664   1.00
H2       -0.12896   0.85763    1.00842   1.00
H2       -0.15025   0.87638    0.98461   1.00
H2       0.05381    0.80256    1.03440   1.00
H2       0.08902    0.83307    1.01048   1.00
H2       0.06986    0.88375    1.02664   1.00
H2       -0.12072   0.77003    1.02641   1.00
H2       -0.05895   0.77936    1.04400   1.00
H2       -0.05432   0.85288    1.03324   1.00
H2       0.00487    0.95731    1.00874   1.00
H2       0.04709    1.01584    0.98886   1.00
H2       -0.03943   0.95855    0.98671   1.00
H2       0.11966    0.96082    0.99972   1.00
H2       0.12011    0.90645    0.98099   1.00
H2       0.12928    0.98510    0.97407   1.00
H2       0.04343    0.68556    0.93893   1.00
H2       0.00342    0.60700    0.92620   1.00
H2       -0.04566   0.63154    0.94070   1.00
H2       0.09330    0.58898    0.94219   1.00
H2       0.12625    0.66022    0.95822   1.00
H2       0.09679    0.57793    0.96831   1.00
H2       0.02333    0.56722    1.03472   1.00
H2       0.01613    0.63748    1.02689   1.00
H2       -0.05744   0.55567    1.02823   1.00
H2       -0.01129   0.47659    0.98489   1.00
H2       0.00661    0.47472    1.01072   1.00
H2       -0.07394   0.46183    1.00343   1.00
H2       -0.12255   0.63686    0.96312   1.00
H2       -0.19072   0.58816    0.97995   1.00
H2       -0.11530   0.65760    0.98904   1.00
H2       -0.20079   0.47757    0.97374   1.00
H2       -0.14145   0.51458    0.95377   1.00
H2       -0.13019   0.46553    0.97264   1.00
C4       0.14295    0.30588    0.45123   1.00
C4       0.17195    0.36043    0.46561   1.00
C3       0.16678    0.25923    0.44826   1.00
C3       0.23144    0.37756    0.47711   1.00
C3       0.08765    0.29766    0.43883   1.00
C3       0.14009    0.40039    0.46886   1.00
C2       0.08376    0.19900    0.42114   1.00
C2       0.22834    0.47250    0.49406   1.00
C3       0.13830    0.20749    0.43355   1.00
C3       0.25852    0.43163    0.49108   1.00
C3       0.05878    0.24434    0.42434   1.00
C3       0.16986    0.45647    0.48237   1.00
H1       0.20538    0.26133    0.45674   1.00
H1       0.25709    0.35153    0.47558   1.00
C5       0.06137    0.34255    0.44104   1.00
C5       0.07910    0.38464    0.45850   1.00
H1       0.15798    0.17557    0.43198   1.00
H1       0.30131    0.44130    0.49910   1.00
H1       0.01792    0.23790    0.41595   1.00
H1       0.14893    0.48722    0.48356   1.00
O3       0.01615    0.34175    0.42690   1.00
O3       0.04035    0.41340    0.46428   1.00
Si1      0.04437    0.39418    0.40767   1.00
Si1      -0.01496   0.37786    0.48257   1.00
C6       -0.03347   0.35958    0.39431   1.00
C6       0.06917    0.47633    0.41698   1.00
C6       0.10713    0.38818    0.39339   1.00
C6       -0.02052   0.30567    0.49474   1.00
C6       0.01023    0.44423    0.50023   1.00
C6       -0.09519   0.35832    0.47285   1.00
C6       -0.07374   0.28000    0.39200   1.00
H2       -0.06451   0.37138    0.40436   1.00
C6       -0.03748   0.38798    0.37294   1.00
H2       0.03785    0.46473    0.43059   1.00
C6       0.14455    0.52243    0.42420   1.00
C6       0.05290    0.52422    0.40395   1.00
H2       0.08415    0.33311    0.39137   1.00
C6       0.12233    0.41957    0.37154   1.00
C6       0.17972    0.41388    0.40283   1.00
C6       -0.03612   0.24242    0.48139   1.00
C6       0.03651    0.31512    0.51003   1.00
H2       -0.06537   0.28878    0.50435   1.00
H2       0.05819    0.45121    0.50624   1.00
C6       0.02765    0.51533    0.49138   1.00
C6       -0.03741   0.43098    0.51890   1.00
H2       -0.09493   0.40661    0.47364   1.00
C6       -0.10846   0.33711    0.45008   1.00
C6       -0.16041   0.30526    0.48462   1.00
H2       -0.08342   0.25463    0.40671   1.00
H2       -0.04564   0.26246    0.38266   1.00
H2       -0.12351   0.26238    0.38496   1.00
H2       -0.08702   0.38467    0.37104   1.00
H2       0.00152    0.44097    0.37075   1.00
H2       -0.03266   0.35868    0.36054   1.00
H2       0.14950    0.56480    0.43344   1.00
H2       0.16185    0.49461    0.43364   1.00
H2       0.17915    0.54422    0.41133   1.00
H2       -0.00141   0.50019    0.40052   1.00
H2       0.06608    0.57137    0.41208   1.00
H2       0.08166    0.53837    0.38976   1.00
H2       0.13463    0.47275    0.37183   1.00
H2       0.16504    0.41775    0.36440   1.00
H2       0.07928    0.39100    0.36146   1.00
H2       0.21406    0.46816    0.40012   1.00
H2       0.17880    0.40599    0.41906   1.00
H2       0.20328    0.38665    0.39600   1.00
H2       0.00987    0.24790    0.47434   1.00
H2       -0.05768   0.19623    0.49066   1.00
H2       -0.07293   0.23347    0.46946   1.00
H2       0.02112    0.26780    0.51835   1.00
H2       0.08432    0.32863    0.50247   1.00
H2       0.04645    0.35390    0.52143   1.00
H2       0.05359    0.55526    0.50279   1.00
H2       0.06210    0.52926    0.47840   1.00
H2       -0.01794   0.51631    0.48656   1.00
H2       -0.05068   0.38304    0.52645   1.00
H2       -0.01183   0.47148    0.53017   1.00
H2       -0.08442   0.42991    0.51448   1.00
H2       -0.10738   0.29028    0.44712   1.00
H2       -0.15756   0.32980    0.44495   1.00
H2       -0.06952   0.37709    0.44074   1.00
H2       -0.20575   0.30541    0.47896   1.00
H2       -0.16905   0.25353    0.48290   1.00
H2       -0.15685   0.31693    0.50076   1.00
C4       0.69122    0.82845    0.45038   1.00
C4       0.63811    0.80419    0.46522   1.00
C3       0.74378    0.81160    0.45041   1.00
C3       0.63575    0.76587    0.48256   1.00
C3       0.69299    0.87291    0.43474   1.00
C3       0.58392    0.81856    0.46273   1.00
C2       0.79875    0.88230    0.42042   1.00
C2       0.52975    0.75830    0.49478   1.00
C3       0.79629    0.83806    0.43592   1.00
C3       0.58274    0.74299    0.49684   1.00
C3       0.74569    0.89805    0.42004   1.00
C3       0.53257    0.79754    0.47774   1.00
H1       0.74532    0.77942    0.46091   1.00
H1       0.67268    0.75381    0.48540   1.00
C5       0.64196    0.89175    0.43384   1.00
C5       0.58151    0.85431    0.44539   1.00
H1       0.83321    0.82448    0.43678   1.00
H1       0.58337    0.71497    0.50899   1.00
H1       0.74524    0.92837    0.40859   1.00
H1       0.49657    0.81198    0.47640   1.00
O3       0.64999    0.94313    0.42094   1.00
O3       0.52343    0.85698    0.44064   1.00
Si1      0.68472    1.02139    0.42927   1.00
Si1      0.46303    0.79441    0.42775   1.00
C6       0.69118    1.06071    0.40562   1.00
C6       0.62454    1.02628    0.44510   1.00
C6       0.76582    1.05100    0.44028   1.00
C6       0.47366    0.72456    0.42122   1.00
C6       0.39149    0.76625    0.44355   1.00
C6       0.44899    0.82997    0.40578   1.00
C6       0.72165    1.03832    0.38783   1.00
H2       0.63773    1.04098    0.40164   1.00
C6       0.72593    1.14032    0.40377   1.00
H2       0.57652    0.98480    0.43927   1.00
C6       0.62512    1.01162    0.46826   1.00
C6       0.61750    1.09153    0.44400   1.00
H2       0.79114    1.03591    0.42900   1.00
C6       0.81230    1.12997    0.44300   1.00
C6       0.77178    1.02057    0.46110   1.00
C6       0.53823    0.73916    0.40871   1.00
C6       0.46474    0.67144    0.43791   1.00
H2       0.43062    0.69538    0.41106   1.00
H2       0.40232    0.74219    0.45623   1.00
C6       0.38057    0.82320    0.45325   1.00
C6       0.32092    0.71144    0.43477   1.00
H2       0.41654    0.84986    0.41099   1.00
C6       0.51284    0.89259    0.39644   1.00
C6       0.41018    0.78114    0.38764   1.00
H2       0.69340    0.98310    0.38568   1.00
H2       0.77500    1.05377    0.39068   1.00
H2       0.71904    1.06094    0.37345   1.00
H2       0.70110    1.15372    0.39185   1.00
H2       0.72314    1.16448    0.41770   1.00
H2       0.77969    1.16400    0.39957   1.00
H2       0.57757    1.00194    0.47546   1.00
H2       0.62944    0.96655    0.47102   1.00
H2       0.66690    1.05496    0.47602   1.00
H2       0.60669    1.10091    0.42858   1.00
H2       0.57508    1.08597    0.45335   1.00
H2       0.66376    1.13644    0.44941   1.00
H2       0.78577    1.15145    0.45135   1.00
H2       0.85938    1.14323    0.45119   1.00
H2       0.82880    1.15561    0.42845   1.00
H2       0.76651    1.04777    0.47401   1.00
H2       0.73418    0.96719    0.46303   1.00
H2       0.82186    1.02465    0.46238   1.00
H2       0.58257    0.75493    0.41842   1.00
H2       0.52960    0.69317    0.40073   1.00
H2       0.55110    0.77842    0.39728   1.00
H2       0.46326    0.62675    0.43103   1.00
H2       0.50650    0.69220    0.44876   1.00
H2       0.41707    0.65255    0.44625   1.00
H2       0.34243    0.80188    0.46534   1.00
H2       0.42750    0.86327    0.46014   1.00
H2       0.36312    0.84684    0.44215   1.00
H2       0.32318    0.66842    0.42817   1.00
H2       0.28255    0.69086    0.44681   1.00
H2       0.30282    0.73316    0.42321   1.00
H2       0.55083    0.87979    0.39129   1.00
H2       0.49917    0.91396    0.38362   1.00
H2       0.53673    0.93269    0.40770   1.00
H2       0.39559    0.80692    0.37636   1.00
H2       0.44184    0.76405    0.38001   1.00
H2       0.36329    0.73625    0.39259   1.00
C4       0.16666    -0.13884   0.45140   1.00
C4       0.19122    -0.16836   0.46592   1.00
C3       0.11893    -0.11757   0.45608   1.00
C3       0.16594    -0.18524   0.48606   1.00
C3       0.18998    -0.13086   0.43093   1.00
C3       0.24413    -0.18186   0.46020   1.00
C2       0.11690    -0.08273   0.42095   1.00
C2       0.24250    -0.22937   0.49425   1.00
C3       0.09442    -0.09064   0.44127   1.00
C3       0.19129    -0.21431   0.49990   1.00
C3       0.16560    -0.10240   0.41629   1.00
C3       0.26691    -0.21386   0.47411   1.00
H1       0.10076    -0.12079   0.47042   1.00
H1       0.12809    -0.17730   0.49122   1.00
C5       0.23771    -0.15108   0.42524   1.00
C5       0.27364    -0.16399   0.44061   1.00
H1       0.05957    -0.07659   0.44551   1.00
H1       0.17150    -0.22489   0.51431   1.00
H1       0.18421    -0.09523   0.40179   1.00
H1       0.30168    -0.22716   0.46937   1.00
O3       0.25135    -0.15397   0.40501   1.00
O3       0.33328    -0.16396   0.43611   1.00
Si1      0.20898    -0.22567   0.39261   1.00
Si1      0.40609    -0.09646   0.44153   1.00
C6       0.24025    -0.19274   0.36822   1.00
C6       0.23900    -0.27998   0.40087   1.00
C6       0.11971    -0.26092   0.39395   1.00
C6       0.40504    -0.02752   0.45376   1.00
C6       0.44570    -0.12881   0.45733   1.00
C6       0.45317    -0.06867   0.41882   1.00
C6       0.23961    -0.12595   0.36236   1.00
H2       0.29407    -0.17766   0.36950   1.00
C6       0.21349    -0.23949   0.34892   1.00
H2       0.29029    -0.24356   0.40612   1.00
C6       0.20266    -0.32827   0.41929   1.00
C6       0.24842    -0.32558   0.38483   1.00
H2       0.11388    -0.21688   0.39053   1.00
C6       0.07536    -0.31681   0.37792   1.00
C6       0.08177    -0.29092   0.41461   1.00
C6       0.36639    0.00506    0.44316   1.00
C6       0.38636    -0.03316   0.47684   1.00
H2       0.45875    0.01193    0.45340   1.00
H2       0.41598    -0.14183   0.47130   1.00
C6       0.44186    -0.19658   0.45016   1.00
C6       0.52152    -0.07918   0.46347   1.00
H2       0.47483    -0.10197   0.41709   1.00
C6       0.41134    -0.07899   0.39905   1.00
C6       0.51488    0.00601    0.41795   1.00
H2       0.26716    -0.08551   0.37347   1.00
H2       0.18753    -0.13506   0.36134   1.00
H2       0.26449    -0.10613   0.34774   1.00
H2       0.25440    -0.22317   0.33774   1.00
H2       0.19517    -0.29289   0.35225   1.00
H2       0.17203    -0.23653   0.34143   1.00
H2       0.23424    -0.34789   0.42554   1.00
H2       0.19358    -0.30197   0.43165   1.00
H2       0.15407    -0.37206   0.41477   1.00
H2       0.28199    -0.29498   0.37251   1.00
H2       0.27216    -0.35276   0.39158   1.00
H2       0.19943    -0.36371   0.37848   1.00
H2       0.08691    -0.35822   0.37794   1.00
H2       0.02070    -0.33904   0.38078   1.00
H2       0.08335    -0.29542   0.36275   1.00
H2       0.06730    -0.34436   0.41654   1.00
H2       0.11154    -0.26380   0.42779   1.00
H2       0.03481    -0.28837   0.41518   1.00
H2       0.31193    -0.02331   0.44638   1.00
H2       0.38543    0.05711    0.44861   1.00
H2       0.37317    0.00805    0.42678   1.00
H2       0.39729    0.01638    0.48280   1.00
H2       0.33256    -0.06851   0.47959   1.00
H2       0.41610    -0.04907   0.48598   1.00
H2       0.45722    -0.21860   0.46243   1.00
H2       0.38989    -0.23488   0.44592   1.00
H2       0.47510    -0.18843   0.43721   1.00
H2       0.52869    -0.03090   0.46927   1.00
H2       0.53718    -0.10167   0.47553   1.00
H2       0.55601    -0.06859   0.45066   1.00
H2       0.38474    -0.05001   0.39923   1.00
H2       0.44374    -0.06420   0.38558   1.00
H2       0.37341    -0.13249   0.39730   1.00
H2       0.54587    0.01357    0.40442   1.00
H2       0.49771    0.04331    0.41744   1.00
H2       0.54856    0.01766    0.43098   1.00
C4       0.31052    0.13852    0.05019   1.00
C4       0.36342    0.16681    0.03528   1.00
C3       0.27704    0.06905    0.05624   1.00
C3       0.38376    0.12728    0.02362   1.00
C3       0.28875    0.18139    0.05946   1.00
C3       0.39845    0.23860    0.03171   1.00
C2       0.20169    0.08446    0.07973   1.00
C2       0.46981    0.22764    0.00507   1.00
C3       0.22387    0.04263    0.07051   1.00
C3       0.43592    0.15690    0.00906   1.00
C3       0.23588    0.15405    0.07411   1.00
C3       0.44884    0.26702    0.01637   1.00
H1       0.29047    0.03565    0.05050   1.00
H1       0.36101    0.07576    0.02526   1.00
C5       0.32013    0.25136    0.05411   1.00
C5       0.38269    0.28160    0.04331   1.00
H1       0.20121    -0.00815   0.07418   1.00
H1       0.44888    0.12589    0.00121   1.00
H1       0.22210    0.18583    0.08104   1.00
H1       0.47037    0.31780    0.01311   1.00
O3       0.29171    0.28964    0.06046   1.00
O3       0.42449    0.35165    0.04299   1.00
Si1      0.23825    0.29787    0.04574   1.00
Si1      0.49039    0.38661    0.05808   1.00
C6       0.21288    0.33929    0.06348   1.00
C6       0.28585    0.35314    0.02580   1.00
C6       0.16851    0.21910    0.03803   1.00
C6       0.50682    0.33263    0.07354   1.00
C6       0.55892    0.43161    0.04135   1.00
C6       0.48235    0.44646    0.07315   1.00
C6       0.19382    0.30641    0.08514   1.00
H2       0.25973    0.38809    0.06554   1.00
C6       0.15641    0.35764    0.05809   1.00
H2       0.33625    0.38263    0.03265   1.00
C6       0.29657    0.32143    0.00602   1.00
C6       0.26656    0.40690    0.01828   1.00
H2       0.15222    0.19103    0.05233   1.00
C6       0.10453    0.21997    0.02935   1.00
C6       0.18047    0.17272    0.02278   1.00
C6       0.44943    0.28297    0.08835   1.00
C6       0.53749    0.29071    0.06381   1.00
H2       0.54779    0.36906    0.08332   1.00
H2       0.56282    0.39162    0.03329   1.00
C6       0.54831    0.47413    0.02449   1.00
C6       0.63064    0.47939    0.05088   1.00
H2       0.50076    0.49118    0.06338   1.00
C6       0.40837    0.42786    0.07906   1.00
C6       0.52551    0.47189    0.09310   1.00
H2       0.23528    0.30134    0.09175   1.00
H2       0.14837    0.25578    0.08465   1.00
H2       0.18382    0.33790    0.09558   1.00
H2       0.16728    0.40498    0.06567   1.00
H2       0.15292    0.36477    0.04193   1.00
H2       0.10586    0.31862    0.06320   1.00
H2       0.33793    0.36058    -0.00312   1.00
H2       0.31079    0.28310    0.00931   1.00
H2       0.25067    0.29834    -0.00334   1.00
H2       0.26746    0.43922    0.03069   1.00
H2       0.30303    0.44128    0.00701   1.00
H2       0.21611    0.38208    0.01126   1.00
H2       0.11863    0.25642    0.01691   1.00
H2       0.06595    0.16991    0.02367   1.00
H2       0.07890    0.23266    0.04103   1.00
H2       0.17747    0.18559    0.00700   1.00
H2       0.22932    0.17552    0.02466   1.00
H2       0.14136    0.11927    0.02491   1.00
H2       0.41237    0.23628    0.08074   1.00
H2       0.47117    0.26797    0.10077   1.00
H2       0.42223    0.30624    0.09518   1.00
H2       0.55360    0.26773    0.07559   1.00
H2       0.50079    0.24925    0.05432   1.00
H2       0.58266    0.32259    0.05471   1.00
H2       0.58809    0.49045    0.01292   1.00
H2       0.49952    0.44389    0.01673   1.00
H2       0.54996    0.51968    0.03062   1.00
H2       0.64337    0.45320    0.06248   1.00
H2       0.67032    0.49652    0.03924   1.00
H2       0.63340    0.52475    0.05762   1.00
H2       0.38313    0.38188    0.08832   1.00
H2       0.40760    0.46924    0.08735   1.00
H2       0.37808    0.41904    0.06545   1.00
H2       0.52416    0.51594    0.09935   1.00
H2       0.50606    0.43217    0.10472   1.00
H2       0.57897    0.48804    0.09041   1.00
C4       0.82820    0.69072    0.04978   1.00
C4       0.80387    0.63768    0.03492   1.00
C3       0.80499    0.73834    0.05131   1.00
C3       0.75866    0.63081    0.01898   1.00
C3       0.87936    0.69766    0.06379   1.00
C3       0.82543    0.58833    0.03590   1.00
C2       0.88239    0.79860    0.07963   1.00
C2       0.75821    0.52990    0.00517   1.00
C3       0.83158    0.79104    0.06574   1.00
C3       0.73593    0.57805    0.00463   1.00
C3       0.90460    0.75039    0.07848   1.00
C3       0.80425    0.53730    0.02078   1.00
H1       0.76792    0.73599    0.04203   1.00
H1       0.74124    0.66417    0.01726   1.00
C5       0.90475    0.65171    0.06310   1.00
C5       0.86846    0.59042    0.05183   1.00
H1       0.81319    0.82428    0.06603   1.00
H1       0.70279    0.57525    -0.00646   1.00
H1       0.93992    0.75358    0.08879   1.00
H1       0.82358    0.50503    0.02095   1.00
O3       0.96161    0.66521    0.07425   1.00
O3       0.87892    0.53619    0.05541   1.00
Si1      1.03705    0.70619    0.06382   1.00
Si1      0.82404    0.47289    0.06935   1.00
C6       1.08486    0.71720    0.08607   1.00
C6       1.04362    0.64966    0.04682   1.00
C6       1.05590    0.78544    0.05330   1.00
C6       0.75198    0.47547    0.07851   1.00
C6       0.79729    0.40207    0.05333   1.00
C6       0.86956    0.46416    0.08968   1.00
C6       1.06379    0.74393    0.10512   1.00
H2       1.07118    0.66486    0.08976   1.00
C6       1.16490    0.75863    0.08573   1.00
H2       1.00722    0.60011    0.05321   1.00
C6       1.02098    0.64797    0.02430   1.00
C6       1.11287    0.65016    0.04546   1.00
H2       1.04097    0.80793    0.06552   1.00
C6       1.13259    0.83770    0.04864   1.00
C6       1.01696    0.78715    0.03377   1.00
C6       0.76427    0.53817    0.09161   1.00
C6       0.69221    0.46083    0.06363   1.00
H2       0.72927    0.43207    0.08887   1.00
H2       0.76703    0.40929    0.04177   1.00
C6       0.85491    0.39772    0.04146   1.00
C6       0.75030    0.32993    0.06272   1.00
H2       0.89217    0.43565    0.08321   1.00
C6       0.93110    0.53132    0.09792   1.00
C6       0.82837    0.42282    0.10875   1.00
H2       1.00979    0.71139    0.10869   1.00
H2       1.07335    0.79574    0.10270   1.00
H2       1.09221    0.74434    0.11857   1.00
H2       1.18527    0.73705    0.09665   1.00
H2       1.18606    0.75825    0.07096   1.00
H2       1.18521    0.81191    0.09004   1.00
H2       1.01369    0.60196    0.01663   1.00
H2       0.97258    0.64705    0.02324   1.00
H2       1.05938    0.69179    0.01581   1.00
H2       1.12865    0.64143    0.06027   1.00
H2       1.10865    0.60938    0.03559   1.00
H2       1.15316    0.69844    0.03934   1.00
H2       1.15524    0.81484    0.03909   1.00
H2       1.13887    0.88322    0.04088   1.00
H2       1.16217    0.85642    0.06250   1.00
H2       1.04189    0.78480    0.01987   1.00
H2       0.96460    0.74591    0.03307   1.00
H2       1.01549    0.83469    0.03327   1.00
H2       0.77298    0.58134    0.08220   1.00
H2       0.71966    0.52526    0.10103   1.00
H2       0.80750    0.55487    0.10183   1.00
H2       0.64784    0.45477    0.07203   1.00
H2       0.70605    0.50210    0.05286   1.00
H2       0.67495    0.41368    0.05514   1.00
H2       0.83291    0.35918    0.02950   1.00
H2       0.88960    0.44606    0.03404   1.00
H2       0.88494    0.38419    0.05135   1.00
H2       0.70719    0.32755    0.07085   1.00
H2       0.72912    0.29124    0.05077   1.00
H2       0.77854    0.31558    0.07312   1.00
H2       0.91529    0.56582    0.10418   1.00
H2       0.95890    0.52113    0.10966   1.00
H2       0.96692    0.55785    0.08573   1.00
H2       0.86039    0.41221    0.11880   1.00
H2       0.80953    0.45096    0.11752   1.00
H2       0.78492    0.37367    0.10456   1.00
C4       -0.13885   0.16665    0.04860   1.00
C4       -0.16837   0.19121    0.03408   1.00
C3       -0.11768   0.11883    0.04392   1.00
C3       -0.18535   0.16586    0.01395   1.00
C3       -0.13075   0.19006    0.06906   1.00
C3       -0.18176   0.24421    0.03978   1.00
C2       -0.08273   0.11690    0.07905   1.00
C2       -0.22937   0.24250    0.00575   1.00
C3       -0.09075   0.09433    0.05874   1.00
C3       -0.21442   0.19121    0.00011   1.00
C3       -0.10230   0.16568    0.08370   1.00
C3       -0.21375   0.26699    0.02588   1.00
H1       -0.12099   0.10059    0.02960   1.00
H1       -0.17750   0.12794    0.00879   1.00
C5       -0.15086   0.23789    0.07474   1.00
C5       -0.16377   0.27380    0.05937   1.00
H1       -0.07678   0.05940    0.05450   1.00
H1       -0.22509   0.17135    -0.01429   1.00
H1       -0.09504   0.18436    0.09819   1.00
H1       -0.22697   0.30183    0.03061   1.00
O3       -0.15364   0.25163    0.09497   1.00
O3       -0.16363   0.33350    0.06386   1.00
Si1      -0.22530   0.20938    0.10740   1.00
Si1      -0.09610   0.40624    0.05840   1.00
C6       -0.19225   0.24074    0.13177   1.00
C6       -0.27957   0.23948    0.09914   1.00
C6       -0.26067   0.12009    0.10609   1.00
C6       -0.02725   0.40503    0.04615   1.00
C6       -0.12843   0.44586    0.04260   1.00
C6       -0.06816   0.45341    0.08109   1.00
C6       -0.12549   0.24002    0.13762   1.00
H2       -0.17711   0.29456    0.13047   1.00
C6       -0.23892   0.21411    0.15109   1.00
H2       -0.24311   0.29073    0.09387   1.00
C6       -0.32795   0.20310    0.08075   1.00
C6       -0.32504   0.24904    0.11519   1.00
H2       -0.21666   0.11421    0.10951   1.00
C6       -0.31652   0.07587    0.12214   1.00
C6       -0.29079   0.08208    0.08545   1.00
C6       0.00528    0.36635    0.05675   1.00
C6       -0.03302   0.38625    0.02308   1.00
H2       0.01225    0.45873    0.04649   1.00
H2       -0.14153   0.41608    0.02863   1.00
C6       -0.19612   0.44215    0.04978   1.00
C6       -0.07874   0.52164    0.03643   1.00
H2       -0.10139   0.47514    0.08282   1.00
C6       -0.07845   0.41165    0.10088   1.00
C6       0.00656    0.51506    0.08193   1.00
H2       -0.08509   0.26748    0.12649   1.00
H2       -0.13467   0.18791    0.13865   1.00
H2       -0.10559   0.26495    0.15223   1.00
H2       -0.22251   0.25507    0.16226   1.00
H2       -0.29233   0.19584    0.14778   1.00
H2       -0.23600   0.17264    0.15859   1.00
H2       -0.34753   0.23471    0.07449   1.00
H2       -0.30173   0.19393    0.06838   1.00
H2       -0.37175   0.15456    0.08529   1.00
H2       -0.29437   0.28264    0.12749   1.00
H2       -0.35220   0.27281    0.10844   1.00
H2       -0.36320   0.20010    0.12156   1.00
H2       -0.35788   0.08748    0.12214   1.00
H2       -0.33882   0.02118    0.11931   1.00
H2       -0.29507   0.08390    0.13731   1.00
H2       -0.34422   0.06768    0.08354   1.00
H2       -0.26370   0.11178    0.07225   1.00
H2       -0.28832   0.03508    0.08489   1.00
H2       -0.02316   0.31187    0.05356   1.00
H2       0.05730    0.38530    0.05129   1.00
H2       0.00835    0.37320    0.07314   1.00
H2       0.01648    0.39708    0.01710   1.00
H2       -0.06844   0.33245    0.02035   1.00
H2       -0.04891   0.41600    0.01393   1.00
H2       -0.21815   0.45750    0.03751   1.00
H2       -0.23445   0.39022    0.05405   1.00
H2       -0.18788   0.47546    0.06272   1.00
H2       -0.03052   0.52871    0.03061   1.00
H2       -0.10124   0.53729    0.02437   1.00
H2       -0.06805   0.55620    0.04922   1.00
H2       -0.04954   0.38498    0.10069   1.00
H2       -0.06357   0.44411    0.11433   1.00
H2       -0.13196   0.37378    0.10264   1.00
H2       0.01421    0.54611    0.09544   1.00
H2       0.04381    0.49781    0.08243   1.00
H2       0.01820    0.54869    0.06889   1.00
C4       0.52927    1.02690    0.88221   1.00
C4       0.50052    0.97232    0.86783   1.00
C3       0.59981    1.06425    0.88701   1.00
C3       0.53830    0.94561    0.85822   1.00
C3       0.48536    1.04490    0.89269   1.00
C3       0.43015    0.94245    0.86260   1.00
C2       0.58295    1.13433    0.91219   1.00
C2       0.43829    0.86083    0.83927   1.00
C3       0.62590    1.11622    0.90167   1.00
C3       0.50823    0.89183    0.84418   1.00
C3       0.51287    1.09835    0.90715   1.00
C3       0.40017    0.88638    0.84909   1.00
H1       0.63434    1.05495    0.87994   1.00
H1       0.58866    0.96415    0.86122   1.00
C5       0.41432    1.00960    0.88860   1.00
C5       0.38989    0.96818    0.87101   1.00
H1       0.67730    1.14114    0.90461   1.00
H1       0.53819    0.87500    0.83758   1.00
H1       0.48104    1.11196    0.91414   1.00
H1       0.34882    0.86276    0.84650   1.00
O3       0.37085    1.01915    0.90101   1.00
O3       0.32620    0.94951    0.86324   1.00
Si1      0.33377    0.96759    0.92007   1.00
Si1      0.32076    0.99104    0.84378   1.00
C6       0.29796    1.01340    0.93124   1.00
C6       0.27006    0.88928    0.91001   1.00
C6       0.39176    0.96169    0.93669   1.00
C6       0.39716    1.05625    0.83298   1.00
C6       0.27686    0.92652    0.82576   1.00
C6       0.26768    1.02372    0.85092   1.00
C6       0.34722    1.09208    0.93372   1.00
H2       0.26064    1.00833    0.91986   1.00
C6       0.25750    0.98938    0.95175   1.00
H2       0.25876    0.90508    0.89557   1.00
C6       0.28947    0.83383    0.90462   1.00
C6       0.20017    0.84988    0.92137   1.00
H2       0.43006    1.01525    0.93901   1.00
C6       0.36499    0.93144    0.95832   1.00
C6       0.43132    0.92493    0.92942   1.00
C6       0.44750    1.11608    0.84700   1.00
C6       0.44216    1.03674    0.81966   1.00
H2       0.37836    1.07941    0.82213   1.00
H2       0.31371    0.91117    0.82138   1.00
C6       0.21314    0.85998    0.83371   1.00
C6       0.25433    0.94668    0.80573   1.00
H2       0.21614    0.98049    0.84914   1.00
C6       0.27202    1.04582    0.87352   1.00
C6       0.27038    1.08295    0.83794   1.00
H2       0.37030    1.11613    0.91927   1.00
H2       0.38831    1.10280    0.94440   1.00
H2       0.31992    1.11730    0.93927   1.00
H2       0.21650    1.00161    0.95189   1.00
H2       0.23441    0.93482    0.95425   1.00
H2       0.28967    1.01503    0.96486   1.00
H2       0.25096    0.79477    0.89474   1.00
H2       0.33759    0.85520    0.89646   1.00
H2       0.29293    0.80829    0.91824   1.00
H2       0.17681    0.88156    0.92330   1.00
H2       0.16350    0.80505    0.91279   1.00
H2       0.20629    0.83229    0.93624   1.00
H2       0.31872    0.88161    0.95737   1.00
H2       0.40277    0.92532    0.96702   1.00
H2       0.35455    0.96528    0.96736   1.00
H2       0.40256    0.87011    0.93224   1.00
H2       0.44380    0.93169    0.91342   1.00
H2       0.47956    0.94509    0.93765   1.00
H2       0.48036    1.10282    0.85558   1.00
H2       0.48084    1.16110    0.83795   1.00
H2       0.42093    1.13127    0.85770   1.00
H2       0.48191    1.08166    0.81181   1.00
H2       0.46783    1.01599    0.82865   1.00
H2       0.41257    0.99989    0.80788   1.00
H2       0.19653    0.81913    0.82248   1.00
H2       0.22489    0.84149    0.84758   1.00
H2       0.17017    0.86773    0.83681   1.00
H2       0.29640    0.99178    0.79873   1.00
H2       0.23675    0.90539    0.79461   1.00
H2       0.21242    0.95651    0.80843   1.00
H2       0.32253    1.08755    0.87748   1.00
H2       0.23477    1.06163    0.87697   1.00
H2       0.26077    1.00310    0.88339   1.00
H2       0.22828    1.09141    0.84190   1.00
H2       0.31792    1.13084    0.84041   1.00
H2       0.26574    1.07138    0.82177   1.00
C4       -0.02088   0.50143    0.88421   1.00
C4       0.03214    0.52577    0.86934   1.00
C3       -0.02016   0.46815    0.90238   1.00
C3       0.08795    0.51380    0.87026   1.00
C3       -0.07860   0.50961    0.88073   1.00
C3       0.02994    0.56446    0.85256   1.00
C2       -0.13168   0.45065    0.91304   1.00
C2       0.13652    0.57541    0.83842   1.00
C3       -0.07418   0.44310    0.91635   1.00
C3       0.13906    0.53846    0.85533   1.00
C3       -0.13198   0.48512    0.89519   1.00
C3       0.08037    0.58634    0.83723   1.00
H1       0.01973    0.46134    0.90603   1.00
H1       0.09290    0.48645    0.88173   1.00
C5       -0.08249   0.54246    0.86286   1.00
C5       -0.02282   0.58063    0.85104   1.00
H1       -0.07107   0.41902    0.92916   1.00
H1       0.17853    0.52875    0.85687   1.00
H1       -0.17216   0.49303    0.89276   1.00
H1       0.07569    0.61019    0.82467   1.00
O3       -0.14272   0.54020    0.85793   1.00
O3       -0.01873   0.62877    0.83735   1.00
Si1      -0.19714   0.48047    0.84287   1.00
Si1      0.02280    0.70908    0.84379   1.00
C6       -0.26422   0.49819    0.84580   1.00
C6       -0.16302   0.50009    0.81814   1.00
C6       -0.22140   0.39736    0.85129   1.00
C6       0.06321    0.73091    0.86776   1.00
C6       0.08445    0.74655    0.82462   1.00
C6       -0.03418   0.74036    0.84150   1.00
C6       -0.28130   0.50798    0.86817   1.00
H2       -0.24311   0.54835    0.83874   1.00
C6       -0.33513   0.45259    0.83531   1.00
H2       -0.12952   0.55524    0.81900   1.00
C6       -0.11691   0.47082    0.81092   1.00
C6       -0.21234   0.48789    0.79998   1.00
H2       -0.23293   0.39948    0.86728   1.00
C6       -0.28756   0.33692    0.84184   1.00
C6       -0.16817   0.37210    0.85068   1.00
C6       0.01839    0.69773    0.88702   1.00
C6       0.13070    0.72892    0.87109   1.00
H2       0.07969    0.78508    0.86885   1.00
H2       0.11940    0.72754    0.82757   1.00
C6       0.05868    0.72413    0.80237   1.00
C6       0.12871    0.82612    0.82440   1.00
H2       -0.03386   0.75070    0.82531   1.00
C6       -0.11030   0.68929    0.84665   1.00
C6       -0.01594   0.80854    0.85261   1.00
H2       -0.23638   0.54751    0.87601   1.00
H2       -0.30088   0.46074    0.87686   1.00
H2       -0.31962   0.52387    0.86857   1.00
H2       -0.35764   0.48374    0.83104   1.00
H2       -0.33159   0.42773    0.82163   1.00
H2       -0.37170   0.41276    0.84537   1.00
H2       -0.08778   0.49783    0.79744   1.00
H2       -0.07968   0.47679    0.82237   1.00
H2       -0.14745   0.41690    0.80701   1.00
H2       -0.24035   0.51504    0.80213   1.00
H2       -0.18422   0.50690    0.78574   1.00
H2       -0.24866   0.43362    0.79797   1.00
H2       -0.28503   0.33802    0.82529   1.00
H2       -0.29594   0.28724    0.84687   1.00
H2       -0.33279   0.33831    0.84657   1.00
H2       -0.16791   0.34961    0.83606   1.00
H2       -0.11631   0.41206    0.85363   1.00
H2       -0.18080   0.33278    0.86220   1.00
H2       0.01104    0.64715    0.88995   1.00
H2       0.04298    0.72870    0.90045   1.00
H2       -0.03157   0.69337    0.88578   1.00
H2       0.15435    0.75274    0.88554   1.00
H2       0.12193    0.67711    0.87150   1.00
H2       0.16856    0.75704    0.85939   1.00
H2       0.10188    0.74069    0.79202   1.00
H2       0.02812    0.66866    0.80108   1.00
H2       0.02796    0.74581    0.79702   1.00
H2       0.15066    0.84635    0.83927   1.00
H2       0.17133    0.84271    0.81381   1.00
H2       0.09891    0.84949    0.81960   1.00
H2       -0.11715   0.67278    0.86243   1.00
H2       -0.14275   0.71132    0.84370   1.00
H2       -0.12896   0.64426    0.83716   1.00
H2       -0.04919   0.82778    0.84754   1.00
H2       -0.02187   0.80142    0.86903   1.00
H2       0.03623    0.84846    0.84946   1.00
C4       0.49957    0.47848    0.88415   1.00
C4       0.47508    0.50693    0.86925   1.00
C3       0.54312    0.51659    0.90042   1.00
C3       0.49659    0.57746    0.86805   1.00
C3       0.48062    0.40829    0.88268   1.00
C3       0.42621    0.46291    0.85468   1.00
C2       0.54963    0.41805    0.91308   1.00
C2       0.42431    0.56071    0.83838   1.00
C3       0.56780    0.48736    0.91442   1.00
C3       0.47145    0.60357    0.85316   1.00
C3       0.50503    0.37944    0.89719   1.00
C3       0.40373    0.49064    0.83928   1.00
H1       0.55801    0.56665    0.90261   1.00
H1       0.53146    0.61202    0.87787   1.00
C5       0.43718    0.36731    0.86679   1.00
C5       0.40045    0.39160    0.85543   1.00
H1       0.59955    0.51755    0.92578   1.00
H1       0.48838    0.65493    0.85313   1.00
H1       0.48948    0.32857    0.89627   1.00
H1       0.37211    0.45909    0.82820   1.00
O3       0.42824    0.30329    0.86342   1.00
O3       0.34395    0.34701    0.84422   1.00
Si1      0.47636    0.29318    0.84696   1.00
Si1      0.26819    0.32137    0.85355   1.00
C6       0.44882    0.20702    0.85258   1.00
C6       0.44954    0.30180    0.82259   1.00
C6       0.56442    0.34572    0.85172   1.00
C6       0.26208    0.35435    0.87727   1.00
C6       0.22917    0.34541    0.83483   1.00
C6       0.22547    0.23162    0.85441   1.00
C6       0.44603    0.18906    0.87566   1.00
H2       0.39575    0.18139    0.84757   1.00
C6       0.48158    0.16847    0.84179   1.00
H2       0.39667    0.28806    0.82534   1.00
C6       0.48419    0.37433    0.81272   1.00
C6       0.44676    0.25300    0.80533   1.00
H2       0.56769    0.33800    0.86795   1.00
C6       0.61407    0.32603    0.84109   1.00
C6       0.59890    0.42488    0.84840   1.00
C6       0.29915    0.34437    0.89585   1.00
C6       0.27590    0.42929    0.87864   1.00
H2       0.20777    0.32347    0.88066   1.00
H2       0.25590    0.40093    0.83584   1.00
C6       0.23890    0.32924    0.81239   1.00
C6       0.15160    0.32066    0.83747   1.00
H2       0.20724    0.21609    0.83892   1.00
C6       0.27033    0.19878    0.85897   1.00
C6       0.16115    0.19403    0.86837   1.00
H2       0.41457    0.20437    0.88421   1.00
H2       0.49698    0.21434    0.88238   1.00
H2       0.42362    0.13412    0.87789   1.00
H2       0.44329    0.11472    0.83977   1.00
H2       0.50220    0.18913    0.82691   1.00
H2       0.52275    0.16955    0.85071   1.00
H2       0.45390    0.37551    0.79996   1.00
H2       0.48869    0.41316    0.82333   1.00
H2       0.53483    0.38889    0.80693   1.00
H2       0.41479    0.19958    0.80960   1.00
H2       0.42443    0.26001    0.79146   1.00
H2       0.49776    0.26248    0.80157   1.00
H2       0.60578    0.32104    0.82471   1.00
H2       0.66763    0.36394    0.84377   1.00
H2       0.60791    0.27856    0.84706   1.00
H2       0.61609    0.43953    0.83279   1.00
H2       0.56580    0.44520    0.85195   1.00
H2       0.64381    0.45155    0.85814   1.00
H2       0.35287    0.38335    0.89638   1.00
H2       0.27620    0.34802    0.91004   1.00
H2       0.29565    0.29465    0.89575   1.00
H2       0.26082    0.43880    0.89351   1.00
H2       0.32955    0.46683    0.87666   1.00
H2       0.24656    0.43948    0.86748   1.00
H2       0.22321    0.35607    0.80182   1.00
H2       0.29237    0.34622    0.80911   1.00
H2       0.20891    0.27485    0.80903   1.00
H2       0.14026    0.33177    0.85261   1.00
H2       0.13569    0.34677    0.82668   1.00
H2       0.12021    0.26594    0.83471   1.00
H2       0.29391    0.21275    0.87392   1.00
H2       0.24079    0.14320    0.85805   1.00
H2       0.31083    0.21570    0.84780   1.00
H2       0.13348    0.13926    0.86524   1.00
H2       0.17523    0.20077    0.88441   1.00
H2       0.12537    0.21226    0.86588   1.00
C4       0.35926    0.19633    0.28415   1.00
C4       0.30473    0.16724    0.29853   1.00
C3       0.38317    0.26114    0.27500   1.00
C3       0.26467    0.19715    0.30380   1.00
C3       0.39138    0.15850    0.27823   1.00
C3       0.28896    0.10485    0.30835   1.00
C2       0.46753    0.25012    0.25443   1.00
C2       0.19431    0.10444    0.32743   1.00
C3       0.43554    0.28716    0.26047   1.00
C3       0.21139    0.16698    0.31799   1.00
C3       0.44499    0.18621    0.26382   1.00
C3       0.23320    0.07381    0.32195   1.00
H1       0.36340    0.29143    0.27868   1.00
H1       0.27274    0.24151    0.29740   1.00
C5       0.36993    0.09338    0.28680   1.00
C5       0.32842    0.07340    0.30442   1.00
H1       0.45037    0.33412    0.25426   1.00
H1       0.18453    0.19122    0.32134   1.00
H1       0.46882    0.15933    0.26015   1.00
H1       0.21983    0.02701    0.32785   1.00
O3       0.39285    0.05241    0.27867   1.00
O3       0.32302    0.02111    0.31654   1.00
Si1      0.34763    -0.00394   0.26140   1.00
Si1      0.36787    0.04016    0.33736   1.00
C6       0.40841    -0.02810   0.25514   1.00
C6       0.27628    -0.07080   0.27364   1.00
C6       0.32845    0.03146    0.24029   1.00
C6       0.41916    0.12717    0.34385   1.00
C6       0.30577    -0.00170   0.35618   1.00
C6       0.41806    0.00088    0.33596   1.00
C6       0.48294    0.03184    0.25146   1.00
H2       0.41091    -0.05283   0.26908   1.00
C6       0.39454    -0.08075   0.23772   1.00
H2       0.29485    -0.06665   0.28914   1.00
C6       0.20969    -0.06634   0.27530   1.00
C6       0.25183    -0.14589   0.26697   1.00
H2       0.37805    0.07577    0.23678   1.00
C6       0.30440    -0.01235   0.22042   1.00
C6       0.27715    0.05865    0.24278   1.00
C6       0.47399    0.17558    0.32822   1.00
C6       0.38479    0.16729    0.35238   1.00
H2       0.44815    0.12486    0.35676   1.00
H2       0.27908    0.02718    0.35684   1.00
C6       0.24948    -0.07685   0.35135   1.00
C6       0.33133    -0.00203   0.37819   1.00
H2       0.38324    -0.05185   0.34040   1.00
C6       0.44393    -0.00399   0.31445   1.00
C6       0.48110    0.02724    0.35044   1.00
H2       0.50193    0.06639    0.26444   1.00
H2       0.48563    0.06161    0.23809   1.00
H2       0.51824    0.01269    0.24922   1.00
H2       0.41837    -0.11117   0.24139   1.00
H2       0.34057    -0.11591   0.23526   1.00
H2       0.41621    -0.05582   0.22325   1.00
H2       0.17523    -0.10212   0.28669   1.00
H2       0.22015    -0.01597   0.28002   1.00
H2       0.18227    -0.07901   0.26090   1.00
H2       0.29284    -0.15777   0.26815   1.00
H2       0.21070    -0.18254   0.27674   1.00
H2       0.23265    -0.15504   0.25142   1.00
H2       0.26108    -0.06305   0.22339   1.00
H2       0.28915    0.01146    0.20865   1.00
H2       0.34536    -0.01756   0.21371   1.00
H2       0.22435    0.01856    0.24046   1.00
H2       0.27958    0.08087    0.25752   1.00
H2       0.28814    0.09838    0.23153   1.00
H2       0.45211    0.19352    0.31672   1.00
H2       0.51412    0.22075    0.33585   1.00
H2       0.49867    0.15108    0.32057   1.00
H2       0.42332    0.21692    0.35832   1.00
H2       0.35650    0.17705    0.34081   1.00
H2       0.35029    0.14062    0.36495   1.00
H2       0.20738    -0.09430   0.36217   1.00
H2       0.22778    -0.08100   0.33626   1.00
H2       0.26921    -0.11197   0.35215   1.00
H2       0.36957    0.04901    0.38311   1.00
H2       0.28899    -0.02046   0.38896   1.00
H2       0.35303    -0.03547   0.37937   1.00
H2       0.47762    0.04611    0.30793   1.00
H2       0.47114    -0.03248   0.31473   1.00
H2       0.40087    -0.03095   0.30428   1.00
H2       0.50149    -0.00753   0.35036   1.00
H2       0.52215    0.07749    0.34582   1.00
H2       0.46765    0.03060    0.36610   1.00
C4       0.83288    0.63874    0.28476   1.00
C4       0.85923    0.69318    0.29918   1.00
C3       0.84113    0.58077    0.28647   1.00
C3       0.90165    0.69812    0.31572   1.00
C3       0.79708    0.64243    0.26742   1.00
C3       0.84247    0.74586    0.29716   1.00
C2       0.78100    0.53246    0.25441   1.00
C2       0.91174    0.80570    0.32745   1.00
C3       0.81626    0.52926    0.27167   1.00
C3       0.92668    0.75247    0.32958   1.00
C3       0.77128    0.58931    0.25285   1.00
C3       0.87060    0.80169    0.31078   1.00
H1       0.86524    0.57416    0.29855   1.00
H1       0.91596    0.66260    0.31812   1.00
C5       0.78704    0.69900    0.26480   1.00
C5       0.79829    0.74297    0.28148   1.00
H1       0.82419    0.48879    0.27364   1.00
H1       0.95665    0.75307    0.34135   1.00
H1       0.74406    0.59172    0.24079   1.00
H1       0.86167    0.84115    0.30836   1.00
O3       0.76280    0.70806    0.24658   1.00
O3       0.77076    0.78539    0.28160   1.00
Si1      0.81633    0.75628    0.22909   1.00
Si1      0.70128    0.76268    0.29458   1.00
C6       0.75595    0.73657    0.20956   1.00
C6       0.85143    0.84163    0.23708   1.00
C6       0.87657    0.73173    0.22249   1.00
C6       0.66615    0.68596    0.30862   1.00
C6       0.72518    0.83153    0.31121   1.00
C6       0.64020    0.76064    0.27761   1.00
C6       0.70336    0.65890    0.20646   1.00
H2       0.72613    0.75882    0.21529   1.00
C6       0.77885    0.76634    0.18763   1.00
H2       0.81176    0.83856    0.24716   1.00
C6       0.91829    0.87391    0.25002   1.00
C6       0.86306    0.89707    0.22092   1.00
H2       0.84442    0.67668    0.22046   1.00
C6       0.91600    0.75979    0.20202   1.00
C6       0.93357    0.74251    0.23811   1.00
C6       0.64712    0.61859    0.29698   1.00
C6       0.70123    0.68352    0.32884   1.00
H2       0.61760    0.68007    0.31369   1.00
H2       0.76019    0.82759    0.32175   1.00
C6       0.76663    0.90439    0.30164   1.00
C6       0.66780    0.83147    0.32442   1.00
H2       0.65341    0.81393    0.27633   1.00
C6       0.64288    0.73790    0.25547   1.00
C6       0.56339    0.72037    0.28409   1.00
H2       0.67606    0.63520    0.22048   1.00
H2       0.72862    0.63117    0.20134   1.00
H2       0.66477    0.65145    0.19521   1.00
H2       0.74014    0.77524    0.18067   1.00
H2       0.82670    0.81446    0.18745   1.00
H2       0.78486    0.73128    0.17761   1.00
H2       0.92642    0.92049    0.25751   1.00
H2       0.91620    0.83991    0.26201   1.00
H2       0.96284    0.88746    0.24056   1.00
H2       0.81599    0.88416    0.21288   1.00
H2       0.88002    0.94666    0.22804   1.00
H2       0.90191    0.90353    0.20991   1.00
H2       0.94057    0.81531    0.20134   1.00
H2       0.95545    0.74590    0.19988   1.00
H2       0.88220    0.73815    0.18907   1.00
H2       0.97851    0.79319    0.23689   1.00
H2       0.91689    0.73600    0.25376   1.00
H2       0.95035    0.70556    0.23530   1.00
H2       0.69117    0.61192    0.29496   1.00
H2       0.60907    0.57434    0.30546   1.00
H2       0.62540    0.61677    0.28210   1.00
H2       0.66857    0.63631    0.33712   1.00
H2       0.74944    0.68517    0.32618   1.00
H2       0.71049    0.72513    0.33907   1.00
H2       0.78891    0.94313    0.31354   1.00
H2       0.80892    0.90930    0.29239   1.00
H2       0.73474    0.91664    0.29215   1.00
H2       0.63729    0.78294    0.33222   1.00
H2       0.69007    0.87092    0.33613   1.00
H2       0.63386    0.84189    0.31525   1.00
H2       0.63298    0.68562    0.25477   1.00
H2       0.60612    0.74189    0.24567   1.00
H2       0.69303    0.77083    0.24906   1.00
H2       0.53218    0.73155    0.27387   1.00
H2       0.54334    0.66533    0.28374   1.00
H2       0.55589    0.73428    0.29930   1.00
C4       0.80565    0.16685    0.28474   1.00
C4       0.83380    0.14054    0.29916   1.00
C3       0.73826    0.15580    0.28595   1.00
C3       0.79551    0.09551    0.31514   1.00
C3       0.84636    0.20559    0.26794   1.00
C3       0.90415    0.16008    0.29773   1.00
C2       0.75136    0.21893    0.25442   1.00
C2       0.89408    0.08833    0.32744   1.00
C3       0.71169    0.18077    0.27116   1.00
C3       0.82494    0.07061    0.32901   1.00
C3       0.81904    0.23142    0.25338   1.00
C3       0.93207    0.13211    0.31132   1.00
H1       0.70658    0.12949    0.29765   1.00
H1       0.74503    0.07914    0.31710   1.00
C5       0.91418    0.21852    0.26584   1.00
C5       0.94615    0.20689    0.28264   1.00
H1       0.66243    0.17075    0.27275   1.00
H1       0.79492    0.03866    0.34036   1.00
H1       0.84946    0.26071    0.24172   1.00
H1       0.98133    0.14317    0.30930   1.00
O3       0.94917    0.24580    0.24802   1.00
O3       1.01633    0.23674    0.28343   1.00
Si1      0.94803    0.19534    0.23014   1.00
Si1      1.05959    0.30507    0.29720   1.00
C6       0.98915    0.25842    0.21133   1.00
C6       0.99989    0.16218    0.23821   1.00
C6       0.86486    0.13367    0.22255   1.00
C6       1.01408    0.33599    0.31120   1.00
C6       1.10459    0.28160    0.31395   1.00
C6       1.11913    0.36930    0.28107   1.00
C6       0.96166    0.30916    0.20843   1.00
H2       1.04034    0.28908    0.21761   1.00
C6       0.99961    0.23895    0.18929   1.00
H2       1.03440    0.20129    0.24880   1.00
C6       0.96602    0.09380    0.25044   1.00
C6       1.04691    0.15458    0.22228   1.00
H2       0.84035    0.16439    0.22060   1.00
C6       0.85726    0.09710    0.20174   1.00
C6       0.81838    0.07413    0.23745   1.00
C6       0.96527    0.35396    0.29937   1.00
C6       0.97501    0.29769    0.33090   1.00
H2       1.05495    0.38465    0.31689   1.00
H2       1.06516    0.24447    0.32398   1.00
C6       1.13950    0.24355    0.30431   1.00
C6       1.15913    0.33853    0.32794   1.00
H2       1.16073    0.35823    0.27997   1.00
C6       1.09582    0.36828    0.25876   1.00
C6       1.15238    0.44516    0.28833   1.00
H2       0.96258    0.33432    0.22266   1.00
H2       0.90926    0.28285    0.20278   1.00
H2       0.99305    0.34955    0.19767   1.00
H2       1.04731    0.27963    0.18294   1.00
H2       1.00195    0.19220    0.18878   1.00
H2       0.95910    0.23255    0.17897   1.00
H2       1.00474    0.08657    0.25813   1.00
H2       0.93201    0.09307    0.26222   1.00
H2       0.93737    0.05008    0.24046   1.00
H2       1.08065    0.20300    0.21481   1.00
H2       1.08012    0.13852    0.22949   1.00
H2       1.01678    0.11656    0.21079   1.00
H2       0.88996    0.07445    0.20110   1.00
H2       0.80477    0.05654    0.19897   1.00
H2       0.86969    0.13221    0.18912   1.00
H2       0.82629    0.03058    0.23594   1.00
H2       0.82627    0.08898    0.25327   1.00
H2       0.76460    0.05580    0.23415   1.00
H2       0.91563    0.30900    0.29671   1.00
H2       0.95634    0.38988    0.30807   1.00
H2       0.98632    0.37781    0.28480   1.00
H2       0.95784    0.32802    0.33930   1.00
H2       0.92988    0.24892    0.32760   1.00
H2       1.00726    0.28878    0.34128   1.00
H2       1.15589    0.22103    0.31615   1.00
H2       1.10422    0.20174    0.29452   1.00
H2       1.18424    0.27772    0.29534   1.00
H2       1.13854    0.36666    0.33583   1.00
H2       1.17627    0.31607    0.33960   1.00
H2       1.20395    0.37467    0.31931   1.00
H2       1.05224    0.37626    0.25785   1.00
H2       1.13692    0.40710    0.24951   1.00
H2       1.08112    0.31928    0.25188   1.00
H2       1.19544    0.47868    0.27862   1.00
H2       1.11587    0.46334    0.28789   1.00
H2       1.17219    0.45157    0.30373   1.00
C4       0.80762    0.64532    0.78264   1.00
C4       0.83529    0.69821    0.79757   1.00
C3       0.75384    0.63423    0.76928   1.00
C3       0.80791    0.74122    0.80187   1.00
C3       0.83411    0.60003    0.78105   1.00
C3       0.89371    0.70937    0.80889   1.00
C2       0.75218    0.53514    0.75355   1.00
C2       0.89326    0.80302    0.82831   1.00
C3       0.72659    0.58044    0.75521   1.00
C3       0.83645    0.79261    0.81668   1.00
C3       0.80678    0.54687    0.76650   1.00
C3       0.91990    0.75948    0.82435   1.00
H1       0.73304    0.66504    0.76933   1.00
H1       0.76618    0.73620    0.79446   1.00
C5       0.88791    0.60833    0.79395   1.00
C5       0.92536    0.67014    0.80489   1.00
H1       0.68738    0.57462    0.74605   1.00
H1       0.81487    0.82255    0.81902   1.00
H1       0.82756    0.51595    0.76515   1.00
H1       0.95899    0.76390    0.83320   1.00
O3       0.90552    0.55826    0.79474   1.00
O3       0.98900    0.68873    0.81268   1.00
Si1      0.87159    0.49857    0.81195   1.00
Si1      1.05660    0.74457    0.80040   1.00
C6       0.90386    0.44724    0.80259   1.00
C6       0.90906    0.53578    0.83542   1.00
C6       0.78156    0.45428    0.81170   1.00
C6       1.04502    0.78092    0.77809   1.00
C6       1.10034    0.80885    0.81850   1.00
C6       1.10598    0.70611    0.79515   1.00
C6       0.89552    0.43265    0.77921   1.00
H2       0.95863    0.47963    0.80506   1.00
C6       0.88422    0.37709    0.81278   1.00
H2       0.95788    0.57876    0.83069   1.00
C6       0.87421    0.56706    0.84868   1.00
C6       0.92704    0.49387    0.85056   1.00
H2       0.77029    0.44306    0.79558   1.00
C6       0.74405    0.38384    0.82289   1.00
C6       0.74240    0.49167    0.81876   1.00
C6       1.00152    0.73181    0.76058   1.00
C6       1.02277    0.83607    0.77979   1.00
H2       1.09681    0.80944    0.77209   1.00
H2       1.06865    0.83227    0.82024   1.00
C6       1.10590    0.78428    0.84026   1.00
C6       1.17329    0.86768    0.81278   1.00
H2       1.13334    0.71145    0.80928   1.00
C6       1.06587    0.62796    0.79082   1.00
C6       1.16182    0.73858    0.77823   1.00
H2       0.91794    0.47986    0.77043   1.00
H2       0.84179    0.40213    0.77498   1.00
H2       0.92133    0.40510    0.77442   1.00
H2       0.92694    0.36755    0.81175   1.00
H2       0.87118    0.37506    0.82872   1.00
H2       0.84109    0.33428    0.80526   1.00
H2       0.90921    0.60061    0.86036   1.00
H2       0.85956    0.59810    0.83976   1.00
H2       0.82907    0.52730    0.85636   1.00
H2       0.96035    0.47776    0.84355   1.00
H2       0.95464    0.52448    0.86378   1.00
H2       0.88102    0.44894    0.85608   1.00
H2       0.76150    0.38852    0.83856   1.00
H2       0.68871    0.36245    0.82316   1.00
H2       0.75189    0.34593    0.81517   1.00
H2       0.73363    0.48769    0.83511   1.00
H2       0.76856    0.54545    0.81503   1.00
H2       0.69238    0.46872    0.81145   1.00
H2       0.94713    0.71133    0.76300   1.00
H2       1.01426    0.75897    0.74609   1.00
H2       1.01060    0.68921    0.75881   1.00
H2       1.02719    0.86033    0.76509   1.00
H2       0.97003    0.81441    0.78463   1.00
H2       1.05494    0.87694    0.79026   1.00
H2       1.12321    0.82622    0.85113   1.00
H2       1.05646    0.74371    0.84563   1.00
H2       1.14180    0.76544    0.84076   1.00
H2       1.17392    0.88948    0.79797   1.00
H2       1.19101    0.90918    0.82383   1.00
H2       1.21018    0.84999    0.81264   1.00
H2       1.03405    0.61553    0.77731   1.00
H2       1.10011    0.60745    0.78890   1.00
H2       1.03283    0.60131    0.80356   1.00
H2       1.19549    0.71692    0.77857   1.00
H2       1.13901    0.72942    0.76313   1.00
H2       1.19410    0.79345    0.78028   1.00
C4       0.35732    0.17064    0.78341   1.00
C4       0.30306    0.14413    0.79790   1.00
C3       0.36071    0.21108    0.76651   1.00
C3       0.24383    0.15015    0.79592   1.00
C3       0.41094    0.15531    0.78563   1.00
C3       0.30772    0.10972    0.81544   1.00
C2       0.46701    0.21948    0.75423   1.00
C2       0.19483    0.08778    0.82763   1.00
C3       0.41381    0.23452    0.75225   1.00
C3       0.19148    0.12332    0.81047   1.00
C3       0.46473    0.18051    0.77129   1.00
C3       0.25309    0.08053    0.82947   1.00
H1       0.32483    0.22489    0.76410   1.00
H1       0.23678    0.17382    0.78380   1.00
C5       0.41064    0.11515    0.80219   1.00
C5       0.36650    0.10404    0.81882   1.00
H1       0.41332    0.26316    0.74025   1.00
H1       0.15012    0.12972    0.80833   1.00
H1       0.50382    0.17069    0.77338   1.00
H1       0.25526    0.05232    0.84125   1.00
O3       0.45575    0.09105    0.80245   1.00
O3       0.37814    0.08334    0.83738   1.00
Si1      0.43244    0.01530    0.79346   1.00
Si1      0.41520    0.14002    0.85525   1.00
C6       0.51312    0.02128    0.79473   1.00
C6       0.37510    -0.04480   0.81100   1.00
C6       0.40240    0.00375    0.76824   1.00
C6       0.43606    0.22499    0.85024   1.00
C6       0.35626    0.10727    0.87526   1.00
C6       0.48862    0.13741    0.86263   1.00
C6       0.57438    0.08850    0.78603   1.00
H2       0.52198    0.02335    0.81106   1.00
C6       0.52395    -0.03785   0.78664   1.00
H2       0.38996    -0.01565   0.82510   1.00
C6       0.29720    -0.07095   0.80838   1.00
C6       0.37991    -0.11019   0.81540   1.00
H2       0.44167    0.04999    0.76083   1.00
C6       0.39877    -0.05747   0.75610   1.00
C6       0.33234    -0.00034   0.76364   1.00
C6       0.48314    0.26211    0.83168   1.00
C6       0.37817    0.24372    0.84988   1.00
H2       0.46613    0.25197    0.86355   1.00
H2       0.31398    0.11350    0.87004   1.00
C6       0.32440    0.02924    0.87968   1.00
C6       0.37897    0.14445    0.89620   1.00
H2       0.46928    0.09390    0.87293   1.00
C6       0.52627    0.12143    0.84558   1.00
C6       0.54521    0.19966    0.87467   1.00
H2       0.57805    0.13367    0.79322   1.00
H2       0.56921    0.09260    0.76969   1.00
H2       0.62293    0.09043    0.78880   1.00
H2       0.56234    -0.04133   0.79582   1.00
H2       0.47773    -0.08739   0.78711   1.00
H2       0.54262    -0.02923   0.77104   1.00
H2       0.26933    -0.09578   0.82226   1.00
H2       0.28715    -0.02956   0.80535   1.00
H2       0.27545    -0.10818   0.79612   1.00
H2       0.43098    -0.09715   0.82037   1.00
H2       0.34531    -0.14051   0.82762   1.00
H2       0.36642    -0.14276   0.80199   1.00
H2       0.36939    -0.10536   0.76434   1.00
H2       0.37520    -0.06349   0.74118   1.00
H2       0.44937    -0.04951   0.75303   1.00
H2       0.28942    -0.05221   0.76506   1.00
H2       0.32173    0.03160    0.77345   1.00
H2       0.33191    0.01621    0.74808   1.00
H2       0.45435    0.24970    0.81757   1.00
H2       0.50805    0.31742    0.83356   1.00
H2       0.52339    0.24955    0.82991   1.00
H2       0.39994    0.29908    0.84948   1.00
H2       0.34546    0.22322    0.83663   1.00
H2       0.34620    0.22587    0.86340   1.00
H2       0.28055    0.01153    0.88983   1.00
H2       0.30587    -0.00088   0.86578   1.00
H2       0.36090    0.01764    0.88681   1.00
H2       0.40013    0.19937    0.89467   1.00
H2       0.33526    0.12597    0.90645   1.00
H2       0.41690    0.13525    0.90352   1.00
H2       0.54600    0.16037    0.83378   1.00
H2       0.56870    0.11677    0.85161   1.00
H2       0.49135    0.07304    0.83848   1.00
H2       0.58256    0.18757    0.88101   1.00
H2       0.57267    0.24432    0.86492   1.00
H2       0.52398    0.21369    0.88740   1.00
C4       0.82905    0.18689    0.78359   1.00
C4       0.85549    0.15898    0.79804   1.00
C3       0.78145    0.14768    0.76824   1.00
C3       0.84183    0.09058    0.79746   1.00
C3       0.85190    0.25814    0.78416   1.00
C3       0.89789    0.20123    0.81408   1.00
C2       0.78059    0.24776    0.75429   1.00
C2       0.91215    0.10680    0.82757   1.00
C3       0.75816    0.17729    0.75392   1.00
C3       0.86884    0.06499    0.81192   1.00
C3       0.82682    0.28681    0.76981   1.00
C3       0.92695    0.17529    0.82799   1.00
H1       0.76213    0.09641    0.76707   1.00
H1       0.81220    0.05746    0.78644   1.00
C5       0.89944    0.30024    0.79912   1.00
C5       0.91162    0.26926    0.81608   1.00
H1       0.72412    0.14647    0.74308   1.00
H1       0.85674    0.01494    0.81084   1.00
H1       0.84222    0.33764    0.77076   1.00
H1       0.96066    0.20741    0.83859   1.00
O3       0.92985    0.37012    0.79759   1.00
O3       0.94080    0.30640    0.83353   1.00
Si1      1.00351    0.41344    0.78625   1.00
Si1      0.89163    0.29797    0.85271   1.00
C6       1.00681    0.49299    0.78617   1.00
C6       1.06579    0.41449    0.80254   1.00
C6       1.00378    0.38499    0.76134   1.00
C6       0.80337    0.23925    0.85053   1.00
C6       0.92592    0.27263    0.87251   1.00
C6       0.90514    0.37975    0.85852   1.00
C6       0.94047    0.49210    0.77887   1.00
H2       1.01110    0.50531    0.80231   1.00
C6       1.06723    0.55695    0.77569   1.00
H2       1.04166    0.40724    0.81736   1.00
C6       1.08348    0.35624    0.80046   1.00
C6       1.13625    0.48175    0.80435   1.00
H2       0.95735    0.38094    0.75495   1.00
C6       1.06340    0.43449    0.74703   1.00
C6       0.99860    0.31383    0.75797   1.00
C6       0.76364    0.24851    0.83256   1.00
C6       0.77709    0.16091    0.85200   1.00
H2       0.78298    0.24976    0.86419   1.00
H2       0.91287    0.22085    0.86838   1.00
C6       1.00547    0.31316    0.87458   1.00
C6       0.89657    0.26823    0.89428   1.00
H2       0.95193    0.40306    0.86749   1.00
C6       0.92044    0.42900    0.84023   1.00
C6       0.85039    0.38487    0.87173   1.00
H2       0.89600    0.45608    0.78765   1.00
H2       0.93014    0.47789    0.76288   1.00
H2       0.94486    0.54212    0.78074   1.00
H2       1.07827    0.60328    0.78393   1.00
H2       1.11402    0.55467    0.77519   1.00
H2       1.05511    0.56380    0.76014   1.00
H2       1.11094    0.35429    0.81386   1.00
H2       1.03799    0.30622    0.79920   1.00
H2       1.11589    0.36433    0.78730   1.00
H2       1.13005    0.52476    0.80879   1.00
H2       1.16816    0.47736    0.81603   1.00
H2       1.16435    0.49384    0.79006   1.00
H2       1.11296    0.45073    0.75398   1.00
H2       1.06206    0.41081    0.73243   1.00
H2       1.05977    0.47928    0.74329   1.00
H2       1.04851    0.31747    0.75826   1.00
H2       0.96724    0.27593    0.76913   1.00
H2       0.97602    0.29324    0.74313   1.00
H2       0.76866    0.22554    0.81863   1.00
H2       0.70919    0.22374    0.83603   1.00
H2       0.78076    0.30194    0.82955   1.00
H2       0.72147    0.13213    0.85327   1.00
H2       0.79043    0.14164    0.83870   1.00
H2       0.79667    0.14806    0.86539   1.00
H2       1.02244    0.28668    0.88485   1.00
H2       1.03027    0.31752    0.85999   1.00
H2       1.02413    0.36445    0.88052   1.00
H2       0.84096    0.23886    0.89442   1.00
H2       0.91438    0.24264    0.90463   1.00
H2       0.91294    0.31885    0.90047   1.00
H2       0.87796    0.40988    0.82959   1.00
H2       0.93212    0.47971    0.84523   1.00
H2       0.96476    0.43521    0.83204   1.00
H2       0.86940    0.43728    0.87684   1.00
H2       0.80350    0.36918    0.86318   1.00
H2       0.83756    0.35339    0.88532   1.00
C4       -0.02370   0.47104    0.38323   1.00
C4       0.02929    0.49964    0.36835   1.00
C3       -0.06759   0.39986    0.38594   1.00
C3       0.03965    0.46025    0.35351   1.00
C3       -0.03454   0.51566    0.39600   1.00
C3       0.07494    0.57156    0.36816   1.00
C2       -0.13184   0.41729    0.41299   1.00
C2       0.13668    0.56147    0.33847   1.00
C3       -0.12042   0.37368    0.40032   1.00
C3       0.09224    0.49020    0.33910   1.00
C3       -0.08731   0.48822    0.41068   1.00
C3       0.12576    0.60103    0.35297   1.00
H1       -0.06231   0.36494    0.37759   1.00
H1       0.00903    0.40870    0.35265   1.00
C5       0.00757    0.58737    0.39408   1.00
C5       0.06933    0.61380    0.38299   1.00
H1       -0.15087   0.32174    0.40150   1.00
H1       0.09767    0.45912    0.32884   1.00
H1       -0.09327   0.52080    0.42011   1.00
H1       0.15520    0.65295    0.35224   1.00
O3       -0.00998   0.63005    0.40395   1.00
O3       0.12047    0.68069    0.38560   1.00
Si1      -0.05495   0.65763    0.39216   1.00
Si1      0.18520    0.69660    0.40009   1.00
C6       -0.06958   0.69651    0.41329   1.00
C6       -0.00097   0.71895    0.37432   1.00
C6       -0.13224   0.59145    0.38220   1.00
C6       0.18817    0.62690    0.41108   1.00
C6       0.25545    0.74106    0.38390   1.00
C6       0.18971    0.75333    0.41912   1.00
C6       -0.09388   0.65260    0.43315   1.00
H2       -0.01839   0.73837    0.41665   1.00
C6       -0.11550   0.73008    0.41145   1.00
H2       0.04926    0.73675    0.38098   1.00
C6       0.00277    0.69444    0.35242   1.00
C6       -0.00680   0.78438    0.37123   1.00
H2       -0.15285   0.55639    0.39504   1.00
C6       -0.18822   0.60972    0.37628   1.00
C6       -0.13054   0.54843    0.36372   1.00
C6       0.12687    0.57642    0.42463   1.00
C6       0.20708    0.58185    0.39756   1.00
H2       0.23138    0.65224    0.42143   1.00
H2       0.25106    0.70227    0.37322   1.00
C6       0.25534    0.79822    0.37055   1.00
C6       0.32812    0.77273    0.39353   1.00
H2       0.21541    0.80315    0.41173   1.00
C6       0.12041    0.74435    0.42663   1.00
C6       0.23224    0.76065    0.43865   1.00
H2       -0.05855   0.63537    0.43766   1.00
H2       -0.14427   0.60761    0.43115   1.00
H2       -0.09670   0.68211    0.44586   1.00
H2       -0.09656   0.77415    0.42155   1.00
H2       -0.11654   0.74769    0.39619   1.00
H2       -0.16824   0.69524    0.41591   1.00
H2       0.04758    0.73351    0.34436   1.00
H2       0.00742    0.64888    0.35256   1.00
H2       -0.04209   0.68404    0.34353   1.00
H2       0.00011    0.81154    0.38550   1.00
H2       0.03280    0.82054    0.36098   1.00
H2       -0.05612   0.77167    0.36472   1.00
H2       -0.16791   0.65309    0.36589   1.00
H2       -0.23224   0.56701    0.36895   1.00
H2       -0.20869   0.62148    0.38959   1.00
H2       -0.13000   0.57186    0.34920   1.00
H2       -0.08692   0.54091    0.36382   1.00
H2       -0.17601   0.49771    0.36386   1.00
H2       0.08495    0.53813    0.41557   1.00
H2       0.14256    0.54906    0.43498   1.00
H2       0.10734    0.60256    0.43394   1.00
H2       0.21620    0.54742    0.40698   1.00
H2       0.16661    0.55015    0.38699   1.00
H2       0.25377    0.61241    0.38893   1.00
H2       0.29420    0.81463    0.35869   1.00
H2       0.20642    0.77983    0.36289   1.00
H2       0.26583    0.84298    0.37949   1.00
H2       0.33361    0.73563    0.40270   1.00
H2       0.36705    0.79007    0.38166   1.00
H2       0.33952    0.81673    0.40302   1.00
H2       0.08844    0.69479    0.43371   1.00
H2       0.12783    0.78388    0.43751   1.00
H2       0.09238    0.74863    0.41390   1.00
H2       0.23978    0.80433    0.44772   1.00
H2       0.20657    0.71531    0.44822   1.00
H2       0.28282    0.76914    0.43494   1.00
C4       0.49485    1.02400    0.38313   1.00
C4       0.47051    0.97097    0.36826   1.00
C3       0.47105    1.07112    0.38482   1.00
C3       0.42465    0.96363    0.35247   1.00
C3       0.54663    1.03147    0.39697   1.00
C3       0.49275    0.92211    0.36909   1.00
C2       0.54907    1.13192    0.41296   1.00
C2       0.42487    0.86324    0.33850   1.00
C3       0.49765    1.12384    0.39924   1.00
C3       0.40194    0.91089    0.33811   1.00
C3       0.57188    1.08420    0.41166   1.00
C3       0.47154    0.87112    0.35396   1.00
H1       0.43353    1.06837    0.37566   1.00
H1       0.40673    0.99662    0.35087   1.00
C5       0.57262    0.98604    0.39611   1.00
C5       0.53646    0.92468    0.38487   1.00
H1       0.47882    1.15670    0.39965   1.00
H1       0.36832    0.90774    0.32714   1.00
H1       0.60766    1.08777    0.42185   1.00
H1       0.49132    0.83923    0.35400   1.00
O3       0.62998    1.00010    0.40709   1.00
O3       0.54767    0.87086    0.38832   1.00
Si1      0.70506    1.04164    0.39647   1.00
Si1      0.49359    0.80733    0.40235   1.00
C6       0.75367    1.05314    0.41857   1.00
C6       0.71175    0.98547    0.37934   1.00
C6       0.72284    1.12065    0.38601   1.00
C6       0.42140    0.80913    0.41176   1.00
C6       0.46698    0.73658    0.38631   1.00
C6       0.54006    0.79916    0.42251   1.00
C6       0.73278    1.07952    0.43773   1.00
H2       0.74060    1.00094    0.42222   1.00
C6       0.83368    1.09520    0.41801   1.00
H2       0.67589    0.93581    0.38578   1.00
C6       0.68834    0.98352    0.35691   1.00
C6       0.78133    0.98671    0.37775   1.00
H2       0.70796    1.14288    0.39832   1.00
C6       0.79923    1.17345    0.38117   1.00
C6       0.68309    1.12192    0.36662   1.00
C6       0.43348    0.87164    0.42493   1.00
C6       0.36103    0.79392    0.39707   1.00
H2       0.39935    0.76574    0.42213   1.00
H2       0.43613    0.74343    0.37486   1.00
C6       0.52459    0.73287    0.37423   1.00
C6       0.42080    0.66434    0.39574   1.00
H2       0.56290    0.77104    0.41591   1.00
C6       0.60145    0.86663    0.43064   1.00
C6       0.49967    0.75763    0.44165   1.00
H2       0.67895    1.04658    0.44144   1.00
H2       0.74177    1.13115    0.43537   1.00
H2       0.76175    1.08025    0.45108   1.00
H2       0.85472    1.07397    0.42883   1.00
H2       0.85451    1.09503    0.40317   1.00
H2       0.85366    1.14842    0.42234   1.00
H2       0.68127    0.93767    0.34918   1.00
H2       0.63966    0.98208    0.35601   1.00
H2       0.72621    1.02750    0.34835   1.00
H2       0.79773    0.97822    0.39249   1.00
H2       0.77723    0.94609    0.36783   1.00
H2       0.82113    1.03515    0.37157   1.00
H2       0.82196    1.15095    0.37151   1.00
H2       0.80483    1.21878    0.37346   1.00
H2       0.82919    1.19240    0.39496   1.00
H2       0.70776    1.11983    0.35263   1.00
H2       0.63087    1.08033    0.36603   1.00
H2       0.68109    1.16918    0.36621   1.00
H2       0.44149    0.91466    0.41556   1.00
H2       0.38905    0.85833    0.43447   1.00
H2       0.47706    0.88873    0.43502   1.00
H2       0.31674    0.78741    0.40561   1.00
H2       0.37417    0.83509    0.38632   1.00
H2       0.34392    0.74682    0.38856   1.00
H2       0.50252    0.69428    0.36228   1.00
H2       0.55873    0.78131    0.36677   1.00
H2       0.55523    0.71974    0.38399   1.00
H2       0.37773    0.66153    0.40401   1.00
H2       0.39956    0.62562    0.38380   1.00
H2       0.44965    0.65039    0.40602   1.00
H2       0.58538    0.90078    0.43702   1.00
H2       0.62986    0.85681    0.44227   1.00
H2       0.63681    0.89339    0.41837   1.00
H2       0.53228    0.74743    0.45156   1.00
H2       0.48070    0.78542    0.45053   1.00
H2       0.45639    0.70827    0.43753   1.00
C4       0.52916    0.50516    0.38313   1.00
C4       0.50046    0.52949    0.36827   1.00
C3       0.60008    0.52907    0.38485   1.00
C3       0.53902    0.57549    0.35251   1.00
C3       0.48483    0.45325    0.39694   1.00
C3       0.42934    0.50712    0.36906   1.00
C2       0.58285    0.45093    0.41296   1.00
C2       0.43839    0.57513    0.33850   1.00
C3       0.62620    0.50247    0.39927   1.00
C3       0.50899    0.59820    0.33814   1.00
C3       0.51231    0.42799    0.41163   1.00
C3       0.39956    0.52833    0.35392   1.00
H1       0.63487    0.56669    0.37573   1.00
H1       0.58996    0.59351    0.35093   1.00
C5       0.41338    0.42712    0.39604   1.00
C5       0.38815    0.46326    0.38481   1.00
H1       0.67791    0.52140    0.39971   1.00
H1       0.53950    0.63192    0.32719   1.00
H1       0.48008    0.39212    0.42179   1.00
H1       0.34788    0.50845    0.35394   1.00
O3       0.37010    0.36967    0.40699   1.00
O3       0.32305    0.45190    0.38823   1.00
Si1      0.33676    0.29466    0.39632   1.00
Si1      0.31338    0.50580    0.40227   1.00
C6       0.29958    0.24588    0.41839   1.00
C6       0.27394    0.28794    0.37918   1.00
C6       0.39816    0.27711    0.38588   1.00
C6       0.38723    0.57802    0.41174   1.00
C6       0.26923    0.53239    0.38623   1.00
C6       0.25867    0.45914    0.42240   1.00
C6       0.34674    0.26673    0.43757   1.00
H2       0.26037    0.25883    0.42203   1.00
C6       0.26178    0.16589    0.41779   1.00
H2       0.26001    0.32370    0.38562   1.00
C6       0.29551    0.31152    0.35675   1.00
C6       0.20570    0.21830    0.37753   1.00
H2       0.43520    0.29197    0.39821   1.00
C6       0.37474    0.20078    0.38100   1.00
C6       0.43925    0.31703    0.36652   1.00
C6       0.43767    0.56599    0.42492   1.00
C6       0.43240    0.63852    0.39709   1.00
H2       0.36576    0.59994    0.42211   1.00
H2       0.30697    0.56336    0.37481   1.00
C6       0.20804    0.47478    0.37411   1.00
C6       0.24299    0.57840    0.39567   1.00
H2       0.20773    0.43625    0.41578   1.00
C6       0.26483    0.39778    0.43051   1.00
C6       0.25731    0.49936    0.44156   1.00
H2       0.36752    0.32053    0.44132   1.00
H2       0.38947    0.25787    0.43523   1.00
H2       0.31846    0.23765    0.45091   1.00
H2       0.21944    0.14471    0.42858   1.00
H2       0.24088    0.14512    0.40294   1.00
H2       0.29506    0.14597    0.42213   1.00
H2       0.25673    0.31855    0.34902   1.00
H2       0.34271    0.36026    0.35589   1.00
H2       0.30177    0.27376    0.34819   1.00
H2       0.18072    0.20177    0.39226   1.00
H2       0.16919    0.22238    0.36760   1.00
H2       0.21447    0.17860    0.37134   1.00
H2       0.32957    0.17803    0.37132   1.00
H2       0.41459    0.19533    0.37331   1.00
H2       0.36371    0.17074    0.39478   1.00
H2       0.41261    0.29242    0.35251   1.00
H2       0.44979    0.36922    0.36596   1.00
H2       0.48857    0.31914    0.36612   1.00
H2       0.47279    0.55812    0.41556   1.00
H2       0.46867    0.61037    0.43450   1.00
H2       0.41118    0.52233    0.43499   1.00
H2       0.47007    0.68279    0.40567   1.00
H2       0.46056    0.62552    0.38634   1.00
H2       0.40239    0.65560    0.38858   1.00
H2       0.19152    0.49686    0.36217   1.00
H2       0.22248    0.44076    0.36664   1.00
H2       0.16424    0.44402    0.38385   1.00
H2       0.28313    0.62145    0.40398   1.00
H2       0.22551    0.59965    0.38374   1.00
H2       0.20013    0.54942    0.40593   1.00
H2       0.31504    0.41390    0.43691   1.00
H2       0.22656    0.36924    0.44211   1.00
H2       0.25638    0.36252    0.41822   1.00
H2       0.21447    0.46663    0.45144   1.00
H2       0.30404    0.51836    0.45046   1.00
H2       0.25115    0.54260    0.43745   1.00
C4       0.18882    0.35424    0.21754   1.00
C4       0.16019    0.30124    0.20266   1.00
C3       0.15393    0.35456    0.23540   1.00
C3       0.09175    0.24658    0.20322   1.00
C3       0.25566    0.41088    0.21439   1.00
C3       0.20182    0.30225    0.18626   1.00
C2       0.24893    0.46500    0.24639   1.00
C2       0.10563    0.19684    0.17175   1.00
C3       0.18296    0.40856    0.24938   1.00
C3       0.06537    0.19545    0.18830   1.00
C3       0.28455    0.46424    0.22887   1.00
C3       0.17341    0.25186    0.17091   1.00
H1       0.10650    0.31544    0.23881   1.00
H1       0.05892    0.24253    0.21442   1.00
C5       0.29333    0.41372    0.19685   1.00
C5       0.27134    0.35378    0.18513   1.00
H1       0.15511    0.40623    0.26195   1.00
H1       0.01568    0.15684    0.18958   1.00
H1       0.33326    0.50361    0.22669   1.00
H1       0.20260    0.25575    0.15860   1.00
O3       0.35253    0.47312    0.19217   1.00
O3       0.31565    0.34832    0.17186   1.00
Si1      0.34999    0.52838    0.17680   1.00
Si1      0.35219    0.30514    0.17886   1.00
C6       0.43524    0.59400    0.18020   1.00
C6       0.33662    0.49410    0.15212   1.00
C6       0.29208    0.55468    0.18456   1.00
C6       0.33090    0.26479    0.20284   1.00
C6       0.32806    0.24325    0.15976   1.00
C6       0.44093    0.36040    0.17710   1.00
C6       0.46050    0.61065    0.20273   1.00
H2       0.46379    0.57175    0.17351   1.00
C6       0.46299    0.66513    0.16960   1.00
H2       0.35692    0.45952    0.15334   1.00
C6       0.26159    0.44946    0.14443   1.00
C6       0.37598    0.54298    0.13407   1.00
H2       0.30464    0.56605    0.20062   1.00
C6       0.30032    0.62156    0.17486   1.00
C6       0.21328    0.50294    0.18349   1.00
C6       0.34219    0.30999    0.22199   1.00
C6       0.26027    0.19835    0.20585   1.00
H2       0.36748    0.24702    0.20435   1.00
H2       0.27368    0.20936    0.16239   1.00
C6       0.33379    0.26919    0.13743   1.00
C6       0.36160    0.19737    0.16008   1.00
H2       0.45203    0.35973    0.16102   1.00
C6       0.46739    0.43689    0.18212   1.00
C6       0.48876    0.34054    0.18876   1.00
H2       0.45330    0.56528    0.21073   1.00
H2       0.43314    0.63131    0.21107   1.00
H2       0.51496    0.64796    0.20344   1.00
H2       0.51682    0.68641    0.16573   1.00
H2       0.43595    0.66229    0.15569   1.00
H2       0.46006    0.70235    0.17946   1.00
H2       0.25970    0.41993    0.13107   1.00
H2       0.22887    0.41265    0.15576   1.00
H2       0.23972    0.48107    0.14015   1.00
H2       0.43096    0.56983    0.13660   1.00
H2       0.36729    0.51467    0.11989   1.00
H2       0.35949    0.58031    0.13172   1.00
H2       0.30009    0.61897    0.15831   1.00
H2       0.25949    0.63125    0.17946   1.00
H2       0.34719    0.66612    0.17980   1.00
H2       0.19197    0.50326    0.16867   1.00
H2       0.19986    0.45071    0.18658   1.00
H2       0.18647    0.51655    0.19470   1.00
H2       0.29958    0.31867    0.22448   1.00
H2       0.34676    0.28493    0.23559   1.00
H2       0.38864    0.35934    0.22093   1.00
H2       0.25867    0.17443    0.22041   1.00
H2       0.21810    0.20847    0.20582   1.00
H2       0.25049    0.16020    0.19425   1.00
H2       0.30710    0.22611    0.12704   1.00
H2       0.31023    0.30088    0.13576   1.00
H2       0.38669    0.29883    0.13242   1.00
H2       0.35815    0.17522    0.17504   1.00
H2       0.33553    0.15485    0.14946   1.00
H2       0.41520    0.22606    0.15563   1.00
H2       0.45688    0.44418    0.19778   1.00
H2       0.52222    0.46823    0.17952   1.00
H2       0.44268    0.45652    0.17231   1.00
H2       0.54182    0.37274    0.18402   1.00
H2       0.48652    0.34665    0.20513   1.00
H2       0.47545    0.28797    0.18575   1.00
C4       0.63866    0.83209    0.21523   1.00
C4       0.69301    0.85854    0.20077   1.00
C3       0.57633    0.83157    0.21218   1.00
C3       0.69300    0.89265    0.18269   1.00
C3       0.64694    0.80548    0.23397   1.00
C3       0.75082    0.85062    0.20438   1.00
C2       0.53257    0.78080    0.24563   1.00
C2       0.80559    0.91194    0.17251   1.00
C3       0.52488    0.80701    0.22700   1.00
C3       0.74743    0.91806    0.16885   1.00
C3       0.59391    0.77976    0.24856   1.00
C3       0.80641    0.87916    0.19068   1.00
H1       0.56638    0.84882    0.19908   1.00
H1       0.65365    0.90042    0.17911   1.00
C5       0.70800    0.80448    0.23797   1.00
C5       0.75322    0.81485    0.22171   1.00
H1       0.48109    0.80838    0.22401   1.00
H1       0.74436    0.94176    0.15595   1.00
H1       0.59980    0.75910    0.26170   1.00
H1       0.84924    0.87688    0.19413   1.00
O3       0.72049    0.78955    0.25721   1.00
O3       0.80158    0.79490    0.22346   1.00
Si1      0.76453    0.85126    0.27321   1.00
Si1      0.78650    0.72334    0.21302   1.00
C6       0.75116    0.79967    0.29473   1.00
C6       0.85039    0.89203    0.26533   1.00
C6       0.73086    0.90596    0.27687   1.00
C6       0.70997    0.67608    0.19919   1.00
C6       0.85642    0.74863    0.19673   1.00
C6       0.79194    0.67252    0.23234   1.00
C6       0.67569    0.74208    0.29862   1.00
H2       0.77853    0.77306    0.29066   1.00
C6       0.77953    0.83224    0.31609   1.00
H2       0.85228    0.85153    0.25690   1.00
C6       0.87616    0.95350    0.25030   1.00
C6       0.90739    0.91554    0.28186   1.00
H2       0.67671    0.86981    0.27924   1.00
C6       0.75533    0.95306    0.29607   1.00
C6       0.73516    0.95461    0.25921   1.00
C6       0.64104    0.65376    0.21036   1.00
C6       0.70313    0.70120    0.17764   1.00
H2       0.70995    0.62874    0.19605   1.00
H2       0.84791    0.77682    0.18476   1.00
C6       0.92812    0.79968    0.20580   1.00
C6       0.86377    0.69110    0.18597   1.00
H2       0.84660    0.69209    0.23400   1.00
C6       0.76735    0.67965    0.25381   1.00
C6       0.75916    0.59413    0.22836   1.00
H2       0.65422    0.70896    0.28540   1.00
H2       0.64311    0.76356    0.30218   1.00
H2       0.67260    0.70935    0.31124   1.00
H2       0.79379    0.80005    0.32474   1.00
H2       0.82434    0.88275    0.31514   1.00
H2       0.74160    0.83668    0.32517   1.00
H2       0.92445    0.96449    0.24334   1.00
H2       0.84058    0.94303    0.23789   1.00
H2       0.88474    0.99966    0.25810   1.00
H2       0.89963    0.87317    0.29154   1.00
H2       0.95774    0.93520    0.27496   1.00
H2       0.90919    0.95604    0.29130   1.00
H2       0.81091    0.98321    0.29670   1.00
H2       0.73562    0.98842    0.29633   1.00
H2       0.73662    0.92350    0.30993   1.00
H2       0.78304    1.00312    0.25947   1.00
H2       0.73055    0.93299    0.24424   1.00
H2       0.69394    0.96627    0.26067   1.00
H2       0.62837    0.69425    0.21044   1.00
H2       0.59915    0.60995    0.20273   1.00
H2       0.64173    0.63858    0.22598   1.00
H2       0.65743    0.66205    0.16994   1.00
H2       0.69873    0.74684    0.17833   1.00
H2       0.74604    0.71163    0.16782   1.00
H2       0.96636    0.82119    0.19375   1.00
H2       0.92785    0.84254    0.21333   1.00
H2       0.94503    0.77510    0.21675   1.00
H2       0.81639    0.65394    0.17863   1.00
H2       0.90276    0.71277    0.17412   1.00
H2       0.87900    0.66428    0.19665   1.00
H2       0.71332    0.66395    0.25400   1.00
H2       0.77614    0.64960    0.26512   1.00
H2       0.79575    0.73245    0.25870   1.00
H2       0.77485    0.57029    0.23998   1.00
H2       0.70351    0.56857    0.22857   1.00
H2       0.77497    0.58377    0.21380   1.00
C4       0.16685    0.80565    0.21526   1.00
C4       0.14054    0.83380    0.20084   1.00
C3       0.15576    0.73824    0.21406   1.00
C3       0.09547    0.79550    0.18487   1.00
C3       0.20563    0.84638    0.23205   1.00
C3       0.16012    0.90416    0.20227   1.00
C2       0.21893    0.75136    0.24558   1.00
C2       0.08833    0.89408    0.17256   1.00
C3       0.18072    0.71167    0.22885   1.00
C3       0.07057    0.82492    0.17100   1.00
C3       0.23146    0.81905    0.24661   1.00
C3       0.13215    0.93209    0.18867   1.00
H1       0.12941    0.70655    0.20236   1.00
H1       0.07907    0.74501    0.18292   1.00
C5       0.21860    0.91421    0.23415   1.00
C5       0.20696    0.94617    0.21734   1.00
H1       0.17067    0.66240    0.22726   1.00
H1       0.03859    0.79490    0.15965   1.00
H1       0.26078    0.84949    0.25827   1.00
H1       0.14324    0.98136    0.19069   1.00
O3       0.24592    0.94923    0.25195   1.00
O3       0.23684    1.01635    0.21654   1.00
Si1      0.19551    0.94815    0.26984   1.00
Si1      0.30516    1.05956    0.20276   1.00
C6       0.25864    0.98927    0.28865   1.00
C6       0.16238    1.00003    0.26177   1.00
C6       0.13383    0.86500    0.27745   1.00
C6       0.33602    1.01399    0.18876   1.00
C6       0.28170    1.10456    0.18601   1.00
C6       0.36944    1.11911    0.21888   1.00
C6       0.30934    0.96174    0.29154   1.00
H2       0.28930    1.04045    0.28236   1.00
C6       0.23921    0.99979    0.31068   1.00
H2       0.20149    1.03451    0.25117   1.00
C6       0.09398    0.96617    0.24955   1.00
C6       0.15484    1.04710    0.27770   1.00
H2       0.16452    0.84047    0.27940   1.00
C6       0.09729    0.85746    0.29826   1.00
C6       0.07425    0.81852    0.26256   1.00
C6       0.35397    0.96517    0.20059   1.00
C6       0.29767    0.97490    0.16907   1.00
H2       0.38467    1.05483    0.18306   1.00
H2       0.24453    1.06513    0.17599   1.00
C6       0.24369    1.13952    0.19565   1.00
C6       0.33862    1.15905    0.17201   1.00
H2       0.35839    1.16073    0.21998   1.00
C6       0.36844    1.09583    0.24119   1.00
C6       0.44528    1.15231    0.21161   1.00
H2       0.33447    0.96262    0.27731   1.00
H2       0.28302    0.90936    0.29720   1.00
H2       0.34976    0.99314    0.30230   1.00
H2       0.27992    1.04749    0.31703   1.00
H2       0.19248    1.00216    0.31120   1.00
H2       0.23281    0.95928    0.32101   1.00
H2       0.08676    1.00490    0.24186   1.00
H2       0.09320    0.93213    0.23777   1.00
H2       0.05027    0.93755    0.25954   1.00
H2       0.20328    1.08083    0.28516   1.00
H2       0.13880    1.08032    0.27049   1.00
H2       0.11683    1.01700    0.28920   1.00
H2       0.07468    0.89018    0.29890   1.00
H2       0.05672    0.80498    0.30105   1.00
H2       0.13242    0.86989    0.31088   1.00
H2       0.03071    0.82646    0.26407   1.00
H2       0.08907    0.82637    0.24674   1.00
H2       0.05590    0.76474    0.26586   1.00
H2       0.30900    0.91555    0.20326   1.00
H2       0.38986    0.95621    0.19189   1.00
H2       0.37786    0.98624    0.21516   1.00
H2       0.32796    0.95769    0.16066   1.00
H2       0.24889    0.92979    0.17238   1.00
H2       0.28876    1.00715    0.15869   1.00
H2       0.22117    1.15591    0.18381   1.00
H2       0.20189    1.10427    0.20545   1.00
H2       0.27790    1.18427    0.20461   1.00
H2       0.36671    1.13843    0.16412   1.00
H2       0.31615    1.17619    0.16035   1.00
H2       0.37479    1.20388    0.18063   1.00
H2       0.37639    1.05222    0.24210   1.00
H2       0.40729    1.13693    0.25044   1.00
H2       0.31946    1.08116    0.24807   1.00
H2       0.47883    1.19538    0.22131   1.00
H2       0.46343    1.11578    0.21205   1.00
H2       0.45167    1.17209    0.19620   1.00
C4       1.02119    0.52124    0.61588   1.00
C4       0.96829    0.49289    0.63079   1.00
C3       1.02935    0.48210    0.60047   1.00
C3       0.92216    0.42187    0.63292   1.00
C3       1.06958    0.59250    0.61645   1.00
C3       0.96039    0.53749    0.64440   1.00
C2       1.13154    0.58180    0.58690   1.00
C2       0.86362    0.43944    0.66164   1.00
C3       1.08320    0.51142    0.58644   1.00
C3       0.87085    0.39589    0.64779   1.00
C3       1.12280    0.62133    0.60194   1.00
C3       0.91024    0.51008    0.65983   1.00
H1       0.99626    0.43117    0.59893   1.00
H1       0.92475    0.38690    0.62381   1.00
C5       1.06432    0.63454    0.63147   1.00
C5       1.00289    0.60912    0.64268   1.00
H1       1.08680    0.48048    0.57573   1.00
H1       0.83859    0.34412    0.64850   1.00
H1       1.15600    0.67283    0.60219   1.00
H1       0.90808    0.54237    0.67025   1.00
O3       1.11703    0.70039    0.63411   1.00
O3       0.98772    0.65327    0.65285   1.00
Si1      1.17616    0.71653    0.65093   1.00
Si1      0.93465    0.67335    0.64251   1.00
C6       1.23124    0.80251    0.64418   1.00
C6       1.13993    0.70998    0.67507   1.00
C6       1.21604    0.66723    0.64759   1.00
C6       0.89672    0.63513    0.61910   1.00
C6       0.87099    0.64924    0.66104   1.00
C6       0.97751    0.76285    0.64033   1.00
C6       1.24602    0.81702    0.62093   1.00
H2       1.20134    0.82636    0.64838   1.00
C6       1.30214    0.84600    0.65489   1.00
H2       1.09882    0.72035    0.67165   1.00
C6       1.10531    0.63917    0.68600   1.00
C6       1.18408    0.76286    0.69178   1.00
H2       1.22707    0.67271    0.63134   1.00
C6       1.28609    0.69236    0.65851   1.00
C6       1.17491    0.58851    0.65205   1.00
C6       0.94476    0.64468    0.60083   1.00
C6       0.83845    0.55869    0.61862   1.00
H2       0.87073    0.66293    0.61486   1.00
H2       0.84481    0.59364    0.66086   1.00
C6       0.89641    0.67019    0.68339   1.00
C6       0.81512    0.66940    0.65738   1.00
H2       0.97359    0.78023    0.65545   1.00
C6       1.05553    0.79871    0.63591   1.00
C6       0.94783    0.79518    0.62536   1.00
H2       1.19891    0.79788    0.61223   1.00
H2       1.27409    0.79311    0.61499   1.00
H2       1.27613    0.87175    0.61792   1.00
H2       1.31472    0.89923    0.65599   1.00
H2       1.30320    0.82849    0.67016   1.00
H2       1.34359    0.84601    0.64642   1.00
H2       1.07283    0.63815    0.69844   1.00
H2       1.07248    0.59776    0.67584   1.00
H2       1.14329    0.62833    0.69244   1.00
H2       1.20290    0.81509    0.68667   1.00
H2       1.15415    0.75652    0.70547   1.00
H2       1.22737    0.75693    0.69615   1.00
H2       1.28219    0.69966    0.67473   1.00
H2       1.30458    0.65629    0.65676   1.00
H2       1.32574    0.73983    0.65201   1.00
H2       1.17825    0.57709    0.66795   1.00
H2       1.12122    0.56495    0.64837   1.00
H2       1.19545    0.56230    0.64305   1.00
H2       0.96235    0.60787    0.60124   1.00
H2       0.91776    0.63714    0.58646   1.00
H2       0.98926    0.69562    0.60040   1.00
H2       0.81391    0.54551    0.60372   1.00
H2       0.85734    0.52376    0.62152   1.00
H2       0.79826    0.54819    0.62956   1.00
H2       0.85416    0.64334    0.69404   1.00
H2       0.93498    0.65662    0.68737   1.00
H2       0.91811    0.72480    0.68589   1.00
H2       0.79287    0.65476    0.64226   1.00
H2       0.77335    0.64331    0.66824   1.00
H2       0.83571    0.72417    0.65927   1.00
H2       1.06647    0.78336    0.62135   1.00
H2       1.07888    0.85418    0.63597   1.00
H2       1.08072    0.78569    0.64763   1.00
H2       0.97230    0.85031    0.62766   1.00
H2       0.95599    0.78650    0.60956   1.00
H2       0.89334    0.77459    0.62767   1.00
C4       0.50046    -0.02107   0.61584   1.00
C4       0.52495    0.03187    0.63075   1.00
C3       0.45722    -0.02630   0.59951   1.00
C3       0.50372    0.08112    0.63188   1.00
C3       0.51909    -0.07253   0.61738   1.00
C3       0.57352    0.03648    0.64539   1.00
C2       0.45038    -0.13158   0.58692   1.00
C2       0.57568    0.13642    0.66162   1.00
C3       0.43253    -0.08022   0.58551   1.00
C3       0.52884    0.13236    0.64677   1.00
C3       0.49468    -0.12579   0.60288   1.00
C3       0.59598    0.08670    0.66079   1.00
H1       0.44257    0.00903    0.59728   1.00
H1       0.46906    0.08098    0.62200   1.00
C5       0.56222    -0.07028   0.63334   1.00
C5       0.59899    -0.00931   0.64472   1.00
H1       0.40101    -0.08161   0.57410   1.00
H1       0.51212    0.16696    0.64675   1.00
H1       0.51000    -0.16128   0.60385   1.00
H1       0.62737    0.08661    0.67192   1.00
O3       0.57081    -0.12555   0.63677   1.00
O3       0.65526    0.00236    0.65601   1.00
Si1      0.52230    -0.18369   0.65320   1.00
Si1      0.73121    0.05222    0.64676   1.00
C6       0.54955    -0.24259   0.64767   1.00
C6       0.54889    -0.14831   0.67759   1.00
C6       0.43435    -0.21886   0.64832   1.00
C6       0.73782    0.09139    0.62302   1.00
C6       0.77018    0.11524    0.66550   1.00
C6       0.77360    0.00487    0.64600   1.00
C6       0.55258    -0.25781   0.62461   1.00
H2       0.60256    -0.21534   0.65274   1.00
C6       0.51638    -0.31391   0.65845   1.00
H2       0.60186    -0.10934   0.67489   1.00
C6       0.51438    -0.11017   0.68737   1.00
C6       0.55120    -0.19447   0.69488   1.00
H2       0.43125    -0.22986   0.63209   1.00
C6       0.38433    -0.28814   0.65892   1.00
C6       0.40013    -0.17391   0.65155   1.00
C6       0.70087    0.04441    0.60442   1.00
C6       0.72437    0.15273    0.62158   1.00
H2       0.79216    0.11461    0.61970   1.00
H2       0.74368    0.14423    0.66442   1.00
C6       0.76004    0.08930    0.68794   1.00
C6       0.84786    0.16780    0.66295   1.00
H2       0.79159    0.00748    0.66152   1.00
C6       0.72854    -0.07280   0.64144   1.00
C6       0.83808    0.03135    0.63213   1.00
H2       0.58432    -0.21107   0.61607   1.00
H2       0.50172    -0.28328   0.61782   1.00
H2       0.57480    -0.29052   0.62243   1.00
H2       0.55446    -0.32962   0.66055   1.00
H2       0.49560    -0.31378   0.67330   1.00
H2       0.47523    -0.35390   0.64950   1.00
H2       0.54457    -0.07878   0.70015   1.00
H2       0.51021    -0.07572   0.67673   1.00
H2       0.46360    -0.14610   0.69311   1.00
H2       0.58304    -0.21612   0.69068   1.00
H2       0.57342    -0.16517   0.70877   1.00
H2       0.50007    -0.23583   0.69859   1.00
H2       0.39239    -0.28487   0.67531   1.00
H2       0.33086    -0.30356   0.65617   1.00
H2       0.39035    -0.32957   0.65299   1.00
H2       0.38275    -0.17638   0.66714   1.00
H2       0.43346    -0.12052   0.64802   1.00
H2       0.35538    -0.19196   0.64176   1.00
H2       0.64722    0.02991    0.60382   1.00
H2       0.72409    0.07097    0.59024   1.00
H2       0.70413    -0.00194   0.60456   1.00
H2       0.73973    0.17730    0.60672   1.00
H2       0.67074    0.13685    0.62349   1.00
H2       0.75367    0.19220    0.63276   1.00
H2       0.77576    0.13185    0.69850   1.00
H2       0.70648    0.05299    0.69116   1.00
H2       0.78979    0.06470    0.69137   1.00
H2       0.85949    0.19026    0.64780   1.00
H2       0.86379    0.20984    0.67372   1.00
H2       0.87902    0.14427    0.66577   1.00
H2       0.70517    -0.08232   0.62645   1.00
H2       0.75786    -0.09905   0.64242   1.00
H2       0.68786    -0.09624   0.65255   1.00
H2       0.86551    0.00404    0.63533   1.00
H2       0.82423    0.02407    0.61607   1.00
H2       0.87401    0.08531    0.63464   1.00
C4       0.47847    0.49955    0.61585   1.00
C4       0.50692    0.47507    0.63075   1.00
C3       0.51653    0.54294    0.59955   1.00
C3       0.57743    0.49642    0.63191   1.00
C3       0.40833    0.48078    0.61735   1.00
C3       0.46294    0.42636    0.64535   1.00
C2       0.41804    0.54962    0.58692   1.00
C2       0.56072    0.42432    0.66162   1.00
C3       0.48730    0.56762    0.58554   1.00
C3       0.60353    0.47129    0.64680   1.00
C3       0.37948    0.50518    0.60285   1.00
C3       0.49068    0.40389    0.66076   1.00
H1       0.56654    0.55769    0.59733   1.00
H1       0.61196    0.53118    0.62206   1.00
C5       0.36741    0.43751    0.63328   1.00
C5       0.39164    0.40076    0.64465   1.00
H1       0.51745    0.59924    0.57415   1.00
H1       0.65487    0.48811    0.64681   1.00
H1       0.32865    0.48976    0.60379   1.00
H1       0.45917    0.37239    0.67187   1.00
O3       0.30347    0.42875    0.63668   1.00
O3       0.34705    0.34438    0.65590   1.00
Si1      0.29363    0.47709    0.65312   1.00
Si1      0.32117    0.26852    0.64662   1.00
C6       0.20747    0.44971    0.64756   1.00
C6       0.30234    0.45040    0.67751   1.00
C6       0.34630    0.56509    0.64830   1.00
C6       0.35392    0.26213    0.62288   1.00
C6       0.34521    0.22952    0.66535   1.00
C6       0.23142    0.22597    0.64581   1.00
C6       0.18935    0.44679    0.62449   1.00
H2       0.18177    0.39667    0.65260   1.00
C6       0.16914    0.48269    0.65834   1.00
H2       0.28845    0.39747    0.67479   1.00
C6       0.37493    0.48497    0.68733   1.00
C6       0.25372    0.44787    0.69479   1.00
H2       0.33848    0.56827    0.63207   1.00
C6       0.32684    0.61494    0.65892   1.00
C6       0.42546    0.59943    0.65157   1.00
C6       0.34391    0.29914    0.60430   1.00
C6       0.42878    0.27575    0.62148   1.00
H2       0.32290    0.20780    0.61954   1.00
H2       0.40072    0.25613    0.66430   1.00
C6       0.32924    0.23948    0.68779   1.00
C6       0.32026    0.15189    0.66276   1.00
H2       0.21598    0.20787    0.66132   1.00
C6       0.19871    0.27095    0.64125   1.00
C6       0.19361    0.16157    0.63190   1.00
H2       0.20450    0.41518    0.61594   1.00
H2       0.21469    0.49769    0.61773   1.00
H2       0.13442    0.42448    0.62228   1.00
H2       0.11537    0.44452    0.66040   1.00
H2       0.18994    0.50340    0.67320   1.00
H2       0.17026    0.52385    0.64940   1.00
H2       0.37612    0.45473    0.70010   1.00
H2       0.41365    0.48929    0.67670   1.00
H2       0.38965    0.53568    0.69309   1.00
H2       0.20026    0.41597    0.69055   1.00
H2       0.26076    0.42560    0.70866   1.00
H2       0.26335    0.49894    0.69852   1.00
H2       0.32196    0.60678    0.67530   1.00
H2       0.36483    0.66845    0.65620   1.00
H2       0.27938    0.60886    0.65297   1.00
H2       0.44026    0.61673    0.66717   1.00
H2       0.44564    0.56621    0.64803   1.00
H2       0.45215    0.64425    0.64180   1.00
H2       0.38298    0.35282    0.60373   1.00
H2       0.34740    0.27604    0.59011   1.00
H2       0.29425    0.29577    0.60442   1.00
H2       0.43813    0.26052    0.60662   1.00
H2       0.46643    0.32939    0.62342   1.00
H2       0.43896    0.24644    0.63265   1.00
H2       0.35608    0.22377    0.69836   1.00
H2       0.34637    0.29299    0.69103   1.00
H2       0.27488    0.20962    0.69119   1.00
H2       0.33122    0.14039    0.64762   1.00
H2       0.34637    0.13597    0.67354   1.00
H2       0.26555    0.12063    0.66555   1.00
H2       0.21261    0.29441    0.62628   1.00
H2       0.14313    0.24152    0.64221   1.00
H2       0.21580    0.31154    0.65239   1.00
H2       0.13886    0.13403    0.63507   1.00
H2       0.20026    0.17553    0.61585   1.00
H2       0.21173    0.12571    0.63440   1.00
C4       0.47628    -0.02744   0.11790   1.00
C4       0.50529    0.02711    0.13228   1.00
C3       0.50018    -0.07404   0.11491   1.00
C3       0.56483    0.04429    0.14376   1.00
C3       0.42093    -0.03573   0.10552   1.00
C3       0.47337    0.06700    0.13555   1.00
C2       0.41709    -0.13433   0.08781   1.00
C2       0.56167    0.13917    0.16073   1.00
C3       0.47169    -0.12578   0.10020   1.00
C3       0.59190    0.09837    0.15773   1.00
C3       0.39206    -0.08904   0.09103   1.00
C3       0.50313    0.12308    0.14906   1.00
H1       0.53883    -0.07190   0.12337   1.00
H1       0.59052    0.01831    0.14221   1.00
C5       0.39459    0.00911    0.10775   1.00
C5       0.41233    0.05119    0.12521   1.00
H1       0.49141    -0.15766   0.09862   1.00
H1       0.63473    0.10807    0.16573   1.00
H1       0.35115    -0.09553   0.08265   1.00
H1       0.48216    0.15379    0.15026   1.00
O3       0.34929    0.00825    0.09363   1.00
O3       0.37354    0.07989    0.13101   1.00
Si1      0.37741    0.06069    0.07440   1.00
Si1      0.31830    0.04430    0.14931   1.00
C6       0.29952    0.02602    0.06106   1.00
C6       0.40215    0.14282    0.08372   1.00
C6       0.44017    0.05477    0.06009   1.00
C6       0.31286    -0.02786   0.16147   1.00
C6       0.34348    0.11066    0.16697   1.00
C6       0.23802    0.02468    0.13962   1.00
C6       0.25931    -0.05356   0.05875   1.00
H2       0.26847    0.03778    0.07112   1.00
C6       0.29540    0.05440    0.03970   1.00
H2       0.37088    0.13119    0.09734   1.00
C6       0.47754    0.18898    0.09092   1.00
C6       0.38577    0.19067    0.07070   1.00
H2       0.41723    -0.00029   0.05807   1.00
C6       0.45527    0.08616    0.03824   1.00
C6       0.51280    0.08054    0.06951   1.00
C6       0.29729    -0.09109   0.14811   1.00
C6       0.36997    -0.01835   0.17674   1.00
H2       0.26803    -0.04479   0.17110   1.00
H2       0.39148    0.11769    0.17298   1.00
C6       0.36080    0.18174    0.15814   1.00
C6       0.29589    0.09736    0.18566   1.00
H2       0.23822    0.07294    0.14042   1.00
C6       0.22468    0.00346    0.11685   1.00
C6       0.17285    -0.02843   0.15140   1.00
H2       0.24970    -0.07893   0.07346   1.00
H2       0.28742    -0.07105   0.04939   1.00
H2       0.20951    -0.07123   0.05172   1.00
H2       0.24583    0.05103    0.03781   1.00
H2       0.33436    0.10740    0.03750   1.00
H2       0.30022    0.02513    0.02729   1.00
H2       0.48248    0.23133    0.10016   1.00
H2       0.49492    0.16120    0.10034   1.00
H2       0.51210    0.21080    0.07803   1.00
H2       0.33145    0.16658    0.06728   1.00
H2       0.39893    0.23780    0.07883   1.00
H2       0.41449    0.20484    0.05650   1.00
H2       0.46751    0.13932    0.03854   1.00
H2       0.49798    0.08440    0.03108   1.00
H2       0.41219    0.05755    0.02817   1.00
H2       0.54708    0.13482    0.06679   1.00
H2       0.51194    0.07265    0.08573   1.00
H2       0.53638    0.05335    0.06266   1.00
H2       0.34327    -0.08556   0.14105   1.00
H2       0.27580    -0.13727   0.15739   1.00
H2       0.26043    -0.10007   0.13620   1.00
H2       0.35464    -0.06566   0.18506   1.00
H2       0.41776    -0.00479   0.16916   1.00
H2       0.37990    0.02043    0.18815   1.00
H2       0.38674    0.22167    0.16954   1.00
H2       0.39521    0.19570    0.14514   1.00
H2       0.31516    0.18266    0.15333   1.00
H2       0.28269    0.04943    0.19321   1.00
H2       0.32148    0.13786    0.19693   1.00
H2       0.24884    0.09624    0.18126   1.00
H2       0.22581    -0.04333   0.11388   1.00
H2       0.17556    -0.00389   0.11174   1.00
H2       0.26357    0.04348    0.10750   1.00
H2       0.12747    -0.02833   0.14576   1.00
H2       0.16427    -0.08014   0.14967   1.00
H2       0.17645    -0.01677   0.16755   1.00
C4       1.02455    0.49512    0.11705   1.00
C4       0.97144    0.47086    0.13189   1.00
C3       1.07712    0.47827    0.11708   1.00
C3       0.96908    0.43255    0.14923   1.00
C3       1.02632    0.53957    0.10141   1.00
C3       0.91725    0.48522    0.12940   1.00
C2       1.13208    0.54897    0.08709   1.00
C2       0.86308    0.42497    0.16145   1.00
C3       1.12963    0.50474    0.10259   1.00
C3       0.91608    0.40967    0.16351   1.00
C3       1.07901    0.56471    0.08671   1.00
C3       0.86590    0.46421    0.14441   1.00
H1       1.07866    0.44610    0.12758   1.00
H1       1.00601    0.42049    0.15207   1.00
C5       0.97528    0.55840    0.10051   1.00
C5       0.91483    0.52096    0.11206   1.00
H1       1.16655    0.49116    0.10346   1.00
H1       0.91671    0.38165    0.17567   1.00
H1       1.07856    0.59503    0.07526   1.00
H1       0.82989    0.47863    0.14307   1.00
O3       0.98330    0.60978    0.08761   1.00
O3       0.85674    0.52362    0.10731   1.00
Si1      1.01802    0.68804    0.09594   1.00
Si1      0.79635    0.46105    0.09442   1.00
C6       1.02448    0.72736    0.07228   1.00
C6       0.95785    0.69293    0.11176   1.00
C6       1.09913    0.71766    0.10694   1.00
C6       0.80699    0.39120    0.08789   1.00
C6       0.72481    0.43288    0.11021   1.00
C6       0.78231    0.49659    0.07245   1.00
C6       1.05495    0.70496    0.05449   1.00
H2       0.97103    0.70761    0.06830   1.00
C6       1.05923    0.80696    0.07043   1.00
H2       0.90983    0.65144    0.10593   1.00
C6       0.95843    0.67827    0.13493   1.00
C6       0.95079    0.75817    0.11066   1.00
H2       1.12445    0.70257    0.09566   1.00
C6       1.14560    0.79663    0.10966   1.00
C6       1.10509    0.68724    0.12777   1.00
C6       0.87157    0.40580    0.07538   1.00
C6       0.79808    0.33809    0.10458   1.00
H2       0.76395    0.36201    0.07773   1.00
H2       0.73564    0.40883    0.12290   1.00
C6       0.71388    0.48983    0.11992   1.00
C6       0.65424    0.37807    0.10144   1.00
H2       0.74985    0.51649    0.07765   1.00
C6       0.84615    0.55921    0.06310   1.00
C6       0.74350    0.44776    0.05431   1.00
H2       1.02671    0.64974    0.05235   1.00
H2       1.10831    0.72042    0.05734   1.00
H2       1.05235    0.72758    0.04011   1.00
H2       1.03439    0.82035    0.05851   1.00
H2       1.05643    0.83112    0.08435   1.00
H2       1.11298    0.83064    0.06623   1.00
H2       0.91087    0.66860    0.14212   1.00
H2       0.96275    0.63321    0.13768   1.00
H2       1.00020    0.72162    0.14268   1.00
H2       0.93998    0.76754    0.09524   1.00
H2       0.90837    0.75261    0.12001   1.00
H2       0.99705    0.80308    0.11606   1.00
H2       1.11907    0.81811    0.11801   1.00
H2       1.19268    0.80991    0.11785   1.00
H2       1.16210    0.82227    0.09511   1.00
H2       1.09982    0.71445    0.14068   1.00
H2       1.06750    0.63386    0.12969   1.00
H2       1.15517    0.69133    0.12904   1.00
H2       0.91590    0.42158    0.08509   1.00
H2       0.86294    0.35982    0.06740   1.00
H2       0.88443    0.44505    0.06394   1.00
H2       0.79660    0.29340    0.09770   1.00
H2       0.83984    0.35885    0.11544   1.00
H2       0.75040    0.31919    0.11292   1.00
H2       0.67575    0.46851    0.13200   1.00
H2       0.76081    0.52990    0.12680   1.00
H2       0.69643    0.51347    0.10881   1.00
H2       0.65651    0.33505    0.09484   1.00
H2       0.61587    0.35748    0.11348   1.00
H2       0.63614    0.39977    0.08987   1.00
H2       0.88415    0.54642    0.05796   1.00
H2       0.83247    0.58058    0.05029   1.00
H2       0.87003    0.59932    0.07437   1.00
H2       0.72890    0.47353    0.04302   1.00
H2       0.77516    0.43067    0.04668   1.00
H2       0.69661    0.40287    0.05926   1.00
C4       0.50516    0.52915    0.11686   1.00
C4       0.52950    0.50046    0.13173   1.00
C3       0.52921    0.60009    0.11511   1.00
C3       0.57564    0.53905    0.14746   1.00
C3       0.45312    0.48480    0.10309   1.00
C3       0.50697    0.42930    0.13098   1.00
C2       0.45093    0.58285    0.08703   1.00
C2       0.57513    0.43839    0.16151   1.00
C3       0.50260    0.62622    0.10069   1.00
C3       0.59835    0.50903    0.16182   1.00
C3       0.42785    0.51228    0.08841   1.00
C3       0.52819    0.39953    0.14611   1.00
H1       0.56692    0.63489    0.12421   1.00
H1       0.59377    0.59002    0.14901   1.00
C5       0.42686    0.41334    0.10403   1.00
C5       0.46296    0.38806    0.11526   1.00
H1       0.52163    0.67794    0.10022   1.00
H1       0.63217    0.53956    0.17275   1.00
H1       0.39188    0.48003    0.07827   1.00
H1       0.50821    0.34783    0.14612   1.00
O3       0.36929    0.37007    0.09313   1.00
O3       0.45144    0.32289    0.11186   1.00
Si1      0.29437    0.33694    0.10383   1.00
Si1      0.50516    0.31299    0.09780   1.00
C6       0.24541    0.29969    0.08180   1.00
C6       0.28762    0.27418    0.12100   1.00
C6       0.27705    0.39853    0.11426   1.00
C6       0.57740    0.38669    0.08827   1.00
C6       0.53171    0.26883    0.11385   1.00
C6       0.45828    0.25819    0.07771   1.00
C6       0.26622    0.34673    0.06259   1.00
H2       0.25823    0.26038    0.07816   1.00
C6       0.16542    0.26204    0.08245   1.00
H2       0.32325    0.26010    0.11455   1.00
C6       0.31137    0.29586    0.14341   1.00
C6       0.21791    0.20603    0.12270   1.00
H2       0.29191    0.43550    0.10191   1.00
C6       0.20079    0.37530    0.11918   1.00
C6       0.31715    0.43970    0.13358   1.00
C6       0.56542    0.43714    0.07508   1.00
C6       0.63804    0.43186    0.10288   1.00
H2       0.59917    0.36507    0.07791   1.00
H2       0.56282    0.30661    0.12525   1.00
C6       0.47411    0.20778    0.12602   1.00
C6       0.57754    0.24238    0.10440   1.00
H2       0.43535    0.20730    0.08437   1.00
C6       0.39696    0.26446    0.06962   1.00
C6       0.49832    0.25661    0.05854   1.00
H2       0.31997    0.36738    0.05882   1.00
H2       0.25749    0.38955    0.06492   1.00
H2       0.23702    0.31840    0.04927   1.00
H2       0.14409    0.21964    0.07168   1.00
H2       0.14473    0.24127    0.09731   1.00
H2       0.14558    0.29539    0.07811   1.00
H2       0.31835    0.25707    0.15116   1.00
H2       0.36017    0.34300    0.14423   1.00
H2       0.27373    0.30227    0.15199   1.00
H2       0.20124    0.18097    0.10799   1.00
H2       0.22197    0.16954    0.13265   1.00
H2       0.17833    0.21495    0.12891   1.00
H2       0.17803    0.33019    0.12889   1.00
H2       0.19550    0.41525    0.12686   1.00
H2       0.17067    0.36423    0.10542   1.00
H2       0.29260    0.41317    0.14761   1.00
H2       0.36931    0.45012    0.13413   1.00
H2       0.31939    0.48908    0.13396   1.00
H2       0.55771    0.47238    0.08443   1.00
H2       0.60976    0.46800    0.06548   1.00
H2       0.52168    0.41066    0.06504   1.00
H2       0.68228    0.46942    0.09428   1.00
H2       0.62520    0.46015    0.11363   1.00
H2       0.65508    0.40184    0.11140   1.00
H2       0.49620    0.19127    0.13796   1.00
H2       0.44022    0.22237    0.13349   1.00
H2       0.44321    0.16393    0.11631   1.00
H2       0.62059    0.28241    0.09606   1.00
H2       0.59881    0.22491    0.11633   1.00
H2       0.54842    0.19947    0.09417   1.00
H2       0.41314    0.31465    0.06320   1.00
H2       0.36829    0.22613    0.05805   1.00
H2       0.36180    0.25616    0.08193   1.00
H2       0.46546    0.21373    0.04869   1.00
H2       0.51735    0.30329    0.04961   1.00
H2       0.54153    0.25037    0.06263   1.00
C4       0.63947    0.81019    0.71553   1.00
C4       0.69404    0.83907    0.70115   1.00
C3       0.59745    0.83853    0.72003   1.00
C3       0.71597    0.90237    0.69123   1.00
C3       0.62638    0.75019    0.72632   1.00
C3       0.72894    0.80308    0.69625   1.00
C2       0.53232    0.75065    0.74553   1.00
C2       0.80584    0.89479    0.67261   1.00
C3       0.54559    0.80984    0.73470   1.00
C3       0.76991    0.92919    0.67721   1.00
C3       0.57300    0.72130    0.74079   1.00
C3       0.78504    0.83239    0.68273   1.00
H1       0.60312    0.88070    0.71273   1.00
H1       0.69370    0.93106    0.69400   1.00
C5       0.66650    0.71927    0.72254   1.00
C5       0.70818    0.73839    0.70497   1.00
H1       0.51716    0.83286    0.73741   1.00
H1       0.78317    0.97490    0.67037   1.00
H1       0.56297    0.67720    0.74801   1.00
H1       0.81224    0.80808    0.68037   1.00
O3       0.66140    0.66860    0.73524   1.00
O3       0.73182    0.69694    0.69752   1.00
Si1      0.71380    0.68805    0.75435   1.00
Si1      0.69287    0.64750    0.67822   1.00
C6       0.67352    0.60679    0.76587   1.00
C6       0.79415    0.70867    0.74442   1.00
C6       0.71402    0.75014    0.77061   1.00
C6       0.62386    0.65160    0.66718   1.00
C6       0.75831    0.67218    0.66026   1.00
C6       0.66669    0.56332    0.68578   1.00
C6       0.59417    0.57168    0.76831   1.00
H2       0.68181    0.57604    0.75470   1.00
C6       0.70004    0.59438    0.78654   1.00
H2       0.78020    0.68074    0.73010   1.00
C6       0.84508    0.78468    0.73875   1.00
C6       0.83802    0.68388    0.75607   1.00
H2       0.65957    0.73081    0.77287   1.00
C6       0.74520    0.75730    0.79230   1.00
C6       0.74534    0.82573    0.76299   1.00
C6       0.56231    0.63775    0.68109   1.00
C6       0.63829    0.71407    0.65353   1.00
H2       0.60360    0.60905    0.65652   1.00
H2       0.76951    0.72300    0.65562   1.00
C6       0.82742    0.68139    0.66837   1.00
C6       0.74126    0.62876    0.64043   1.00
H2       0.71254    0.55932    0.68416   1.00
C6       0.64523    0.54551    0.70842   1.00
C6       0.61016    0.50349    0.67297   1.00
H2       0.56921    0.56783    0.75380   1.00
H2       0.58016    0.60008    0.77878   1.00
H2       0.57270    0.51970    0.77410   1.00
H2       0.69219    0.54266    0.78697   1.00
H2       0.75403    0.62945    0.78901   1.00
H2       0.67266    0.59885    0.79955   1.00
H2       0.88579    0.78833    0.72897   1.00
H2       0.82035    0.80774    0.73037   1.00
H2       0.86902    0.81527    0.75226   1.00
H2       0.81005    0.62872    0.75824   1.00
H2       0.88404    0.69535    0.74756   1.00
H2       0.85414    0.70876    0.77084   1.00
H2       0.79684    0.76523    0.79146   1.00
H2       0.74751    0.80001    0.80075   1.00
H2       0.71396    0.71252    0.80151   1.00
H2       0.80010    0.85569    0.76581   1.00
H2       0.73780    0.82976    0.74694   1.00
H2       0.72171    0.85096    0.77099   1.00
H2       0.57186    0.68322    0.68943   1.00
H2       0.51645    0.62204    0.67199   1.00
H2       0.55029    0.59717    0.69199   1.00
H2       0.59194    0.70462    0.64559   1.00
H2       0.65563    0.76055    0.66230   1.00
H2       0.67608    0.72379    0.64182   1.00
H2       0.86782    0.70765    0.65712   1.00
H2       0.84388    0.71251    0.68212   1.00
H2       0.82401    0.63261    0.67176   1.00
H2       0.69452    0.62139    0.63333   1.00
H2       0.78216    0.65457    0.62929   1.00
H2       0.73577    0.57881    0.64341   1.00
H2       0.60088    0.55020    0.71221   1.00
H2       0.63362    0.49378    0.71214   1.00
H2       0.68685    0.57985    0.71822   1.00
H2       0.60599    0.45484    0.67721   1.00
H2       0.56024    0.49885    0.67532   1.00
H2       0.62162    0.51035    0.65680   1.00
C4       0.17085    0.35766    0.71648   1.00
C4       0.14438    0.30333    0.70201   1.00
C3       0.21588    0.36413    0.73242   1.00
C3       0.15528    0.24687    0.70314   1.00
C3       0.15069    0.40805    0.71527   1.00
C3       0.10486    0.30504    0.68539   1.00
C2       0.21944    0.46712    0.74573   1.00
C2       0.08782    0.19472    0.67241   1.00
C3       0.23922    0.41711    0.74672   1.00
C3       0.12833    0.19436    0.68864   1.00
C3       0.17582    0.46182    0.72962   1.00
C3       0.07574    0.25017    0.67144   1.00
H1       0.23323    0.33069    0.73407   1.00
H1       0.18275    0.24200    0.71458   1.00
C5       0.10580    0.40457    0.69970   1.00
C5       0.09405    0.36107    0.68286   1.00
H1       0.27132    0.41891    0.75800   1.00
H1       0.13837    0.15510    0.69013   1.00
H1       0.16243    0.49865    0.72823   1.00
H1       0.04400    0.25001    0.66039   1.00
O3       0.07762    0.44616    0.70055   1.00
O3       0.06796    0.37047    0.66497   1.00
Si1      0.00298    0.41834    0.71105   1.00
Si1      0.12006    0.40998    0.64623   1.00
C6       0.00307    0.49633    0.71060   1.00
C6       -0.05857   0.35856    0.69430   1.00
C6       -0.00149   0.38900    0.73612   1.00
C6       0.20731    0.43634    0.64945   1.00
C6       0.08633    0.35063    0.62635   1.00
C6       0.11052    0.48027    0.63980   1.00
C6       0.06985    0.56027    0.71840   1.00
H2       0.00115    0.50475    0.69436   1.00
C6       -0.05706   0.50253    0.72021   1.00
H2       -0.03250   0.37477    0.67971   1.00
C6       -0.07940   0.28179    0.69661   1.00
C6       -0.12733   0.35833    0.69153   1.00
H2       0.04494    0.43025    0.74288   1.00
C6       -0.06189   0.38120    0.74965   1.00
C6       0.00030    0.32141    0.73998   1.00
C6       0.24610    0.48460    0.66765   1.00
C6       0.23090    0.38207    0.64868   1.00
H2       0.23020    0.46703    0.63589   1.00
H2       0.09690    0.31051    0.63091   1.00
C6       0.00717    0.31422    0.62342   1.00
C6       0.11869    0.37487    0.60485   1.00
H2       0.06486    0.45834    0.63033   1.00
C6       0.09487    0.51555    0.65764   1.00
C6       0.16818    0.53905    0.62698   1.00
H2       0.11471    0.56700    0.71020   1.00
H2       0.07787    0.55584    0.73455   1.00
H2       0.06776    0.60704    0.71618   1.00
H2       -0.06533   0.53903    0.71159   1.00
H2       -0.10496   0.45445    0.72037   1.00
H2       -0.04625   0.52134    0.73579   1.00
H2       -0.10591   0.25297    0.68302   1.00
H2       -0.03531   0.27520    0.69853   1.00
H2       -0.11369   0.25833    0.70946   1.00
H2       -0.11861   0.40830    0.68686   1.00
H2       -0.15869   0.32266    0.67964   1.00
H2       -0.15718   0.34317    0.70552   1.00
H2       -0.11093   0.34933    0.74222   1.00
H2       -0.06329   0.35832    0.76440   1.00
H2       -0.05668   0.43047    0.75313   1.00
H2       -0.05044   0.27633    0.73929   1.00
H2       0.03198    0.31340    0.72930   1.00
H2       0.02067    0.32244    0.75510   1.00
H2       0.23832    0.45622    0.68168   1.00
H2       0.30101    0.51257    0.66475   1.00
H2       0.23060    0.52240    0.67019   1.00
H2       0.28655    0.40706    0.64802   1.00
H2       0.21486    0.34932    0.66199   1.00
H2       0.21196    0.34982    0.63524   1.00
H2       -0.01007   0.27061    0.61319   1.00
H2       -0.01969   0.29440    0.63778   1.00
H2       -0.00894   0.34835    0.61701   1.00
H2       0.17417    0.39926    0.60532   1.00
H2       0.10063    0.33135    0.59453   1.00
H2       0.10493    0.41055    0.59822   1.00
H2       0.13611    0.53754    0.66872   1.00
H2       0.08574    0.55590    0.65224   1.00
H2       0.04893    0.47854    0.66546   1.00
H2       0.15168    0.57398    0.62140   1.00
H2       0.21433    0.56887    0.63598   1.00
H2       0.18153    0.51948    0.61370   1.00
C4       0.18689    0.82905    0.71642   1.00
C4       0.15898    0.85549    0.70196   1.00
C3       0.14768    0.78149    0.73177   1.00
C3       0.09059    0.84187    0.70255   1.00
C3       0.25813    0.85186    0.71583   1.00
C3       0.20122    0.89785    0.68591   1.00
C2       0.24776    0.78059    0.74571   1.00
C2       0.10680    0.91215    0.67243   1.00
C3       0.17730    0.75820    0.74609   1.00
C3       0.06500    0.86888    0.68809   1.00
C3       0.28680    0.82678    0.73018   1.00
C3       0.17528    0.92691    0.67200   1.00
H1       0.09642    0.76220    0.73295   1.00
H1       0.05748    0.81228    0.71358   1.00
C5       0.30022    0.89936    0.70086   1.00
C5       0.26923    0.91153    0.68390   1.00
H1       0.14648    0.72419    0.75693   1.00
H1       0.01497    0.85681    0.68917   1.00
H1       0.33762    0.84215    0.72922   1.00
H1       0.20739    0.96060    0.66139   1.00
O3       0.37010    0.92974    0.70238   1.00
O3       0.30634    0.94067    0.66645   1.00
Si1      0.41347    1.00342    0.71370   1.00
Si1      0.29785    0.89146    0.64728   1.00
C6       0.49300    1.00667    0.71378   1.00
C6       0.41454    1.06568    0.69741   1.00
C6       0.38508    1.00375    0.73863   1.00
C6       0.23910    0.80321    0.64947   1.00
C6       0.27251    0.92574    0.62747   1.00
C6       0.37961    0.90491    0.64146   1.00
C6       0.49208    0.94032    0.72109   1.00
H2       0.50529    1.01092    0.69764   1.00
C6       0.55700    1.06708    0.72425   1.00
H2       0.40724    1.04153    0.68259   1.00
C6       0.35632    1.08342    0.69949   1.00
C6       0.48182    1.13612    0.69559   1.00
H2       0.38101    0.95732    0.74502   1.00
C6       0.43462    1.06338    0.75292   1.00
C6       0.31394    0.99862    0.74200   1.00
C6       0.24836    0.76350    0.66744   1.00
C6       0.16077    0.77697    0.64801   1.00
H2       0.24957    0.78278    0.63581   1.00
H2       0.22074    0.91273    0.63161   1.00
C6       0.31307    1.00528    0.62539   1.00
C6       0.26805    0.89634    0.60570   1.00
H2       0.40293    0.95168    0.63248   1.00
C6       0.42888    0.92021    0.65973   1.00
C6       0.38466    0.85012    0.62825   1.00
H2       0.45603    0.89584    0.71232   1.00
H2       0.47790    0.93002    0.73708   1.00
H2       0.54208    0.94468    0.71921   1.00
H2       0.60330    1.07809    0.71600   1.00
H2       0.55475    1.11389    0.72475   1.00
H2       0.56386    1.05498    0.73980   1.00
H2       0.35436    1.11087    0.68609   1.00
H2       0.30629    1.03796    0.70076   1.00
H2       0.36445    1.11586    0.71266   1.00
H2       0.52480    1.12988    0.69114   1.00
H2       0.47742    1.16803    0.68391   1.00
H2       0.49395    1.16425    0.70988   1.00
H2       0.45087    1.11294    0.74596   1.00
H2       0.41098    1.06208    0.76752   1.00
H2       0.47941    1.05973    0.75666   1.00
H2       0.31761    1.04855    0.74170   1.00
H2       0.27601    0.96725    0.73084   1.00
H2       0.29337    0.97608    0.75684   1.00
H2       0.22543    0.76856    0.68138   1.00
H2       0.22356    0.70903    0.66398   1.00
H2       0.30179    0.78059    0.67045   1.00
H2       0.13195    0.72135    0.64675   1.00
H2       0.14153    0.79035    0.66131   1.00
H2       0.14791    0.79654    0.63462   1.00
H2       0.28659    1.02226    0.61512   1.00
H2       0.31748    1.03012    0.63998   1.00
H2       0.36435    1.02391    0.61944   1.00
H2       0.23866    0.84073    0.60558   1.00
H2       0.24246    0.91416    0.59536   1.00
H2       0.31865    0.91267    0.59951   1.00
H2       0.40976    0.87776    0.67039   1.00
H2       0.47957    0.93186    0.65473   1.00
H2       0.43513    0.96456    0.66793   1.00
H2       0.43706    0.86908    0.62313   1.00
H2       0.36897    0.80323    0.63680   1.00
H2       0.35316    0.83727    0.61466   1.00
