data_IRMOF10_interpen_symm_ligand11lp_label_j_1.

_audit_creation_method             'generated by an auxiliary program of Tobunporous'

_symmetry_space_group_name_H-M     'P 1'
_symmetry_Int_Tables_number        1
_symmetry_cell_setting             triclinic

_cell_length_a                    22.6523
_cell_length_b                    22.6523
_cell_length_c                    65.9502
_cell_angle_alpha                 90.0000
_cell_angle_beta                  90.0000
_cell_angle_gamma                 120.0000

loop_
_atom_site_label
_atom_site_fract_x
_atom_site_fract_y
_atom_site_fract_z
_atom_site_occupancy
O1       0.00000    -0.00000   0.62500   1.00
Zn1      0.00000    -0.00000   0.59589   1.00
Zn1      0.94848    1.04288    0.63392   1.00
Zn1      0.09439    0.05152    0.63392   1.00
Zn1      -0.04288   0.90561    0.63392   1.00
O2       0.93860    0.02610    0.58587   1.00
O2       0.08750    0.06140    0.58587   1.00
O2       -0.02610   0.91250    0.58587   1.00
O2       0.91305    0.07161    0.61181   1.00
O2       0.00462    0.12022    0.65110   1.00
O2       0.87413    0.98074    0.65071   1.00
O2       0.15856    0.08695    0.61181   1.00
O2       0.10660    0.12587    0.65071   1.00
O2       0.11559    0.99538    0.65110   1.00
O2       -0.07161   0.84144    0.61181   1.00
O2       0.87978    0.88441    0.65110   1.00
O2       0.01926    0.89340    0.65071   1.00
C1       0.91390    0.06020    0.59358   1.00
C1       0.14630    0.08610    0.59358   1.00
C1       -0.06020   0.85370    0.59358   1.00
C1       0.06663    0.14397    0.65673   1.00
C1       0.85603    0.92267    0.65673   1.00
C1       0.07733    0.93337    0.65673   1.00
O1       -0.00000   0.00000    0.87500   1.00
Zn1      -0.00000   0.00000    0.90411   1.00
Zn1      1.04288    0.94848    0.86608   1.00
Zn1      0.05152    0.09439    0.86608   1.00
Zn1      0.90561    -0.04288   0.86608   1.00
O2       0.02610    0.93860    0.91413   1.00
O2       0.06140    0.08750    0.91413   1.00
O2       0.91250    -0.02610   0.91413   1.00
O2       0.07161    0.91305    0.88819   1.00
O2       0.12022    0.00462    0.84890   1.00
O2       0.98074    0.87413    0.84929   1.00
O2       0.08695    0.15856    0.88819   1.00
O2       0.12587    0.10660    0.84929   1.00
O2       0.99538    0.11559    0.84890   1.00
O2       0.84144    -0.07161   0.88819   1.00
O2       0.88441    0.87978    0.84890   1.00
O2       0.89340    0.01926    0.84929   1.00
C1       0.06020    0.91390    0.90642   1.00
C1       0.08610    0.14630    0.90642   1.00
C1       0.85370    -0.06020   0.90642   1.00
C1       0.14397    0.06663    0.84327   1.00
C1       0.92267    0.85603    0.84327   1.00
C1       0.93337    0.07733    0.84327   1.00
O1       0.00000    0.00000    0.37500   1.00
Zn1      0.00000    0.00000    0.40411   1.00
Zn1      0.05152    -0.04288   0.36608   1.00
Zn1      0.90561    0.94848    0.36608   1.00
Zn1      1.04288    0.09439    0.36608   1.00
O2       0.06140    -0.02610   0.41413   1.00
O2       0.91250    0.93860    0.41413   1.00
O2       0.02610    0.08750    0.41413   1.00
O2       0.08695    -0.07161   0.38819   1.00
O2       0.99538    0.87978    0.34890   1.00
O2       0.12587    0.01926    0.34929   1.00
O2       0.84144    0.91305    0.38819   1.00
O2       0.89340    0.87413    0.34929   1.00
O2       0.88441    0.00462    0.34890   1.00
O2       0.07161    0.15856    0.38819   1.00
O2       0.12022    0.11559    0.34890   1.00
O2       0.98074    0.10660    0.34929   1.00
C1       0.08610    -0.06020   0.40642   1.00
C1       0.85370    0.91390    0.40642   1.00
C1       0.06020    0.14630    0.40642   1.00
C1       0.93337    0.85603    0.34327   1.00
C1       0.14397    0.07733    0.34327   1.00
C1       0.92267    0.06663    0.34327   1.00
O1       0.00000    0.00000    0.12500   1.00
Zn1      0.00000    0.00000    0.09589   1.00
Zn1      -0.04288   0.05152    0.13392   1.00
Zn1      0.94848    0.90561    0.13392   1.00
Zn1      0.09439    1.04288    0.13392   1.00
O2       -0.02610   0.06140    0.08587   1.00
O2       0.93860    0.91250    0.08587   1.00
O2       0.08750    0.02610    0.08587   1.00
O2       -0.07161   0.08695    0.11181   1.00
O2       0.87978    0.99538    0.15110   1.00
O2       0.01926    0.12587    0.15071   1.00
O2       0.91305    0.84144    0.11181   1.00
O2       0.87413    0.89340    0.15071   1.00
O2       0.00462    0.88441    0.15110   1.00
O2       0.15856    0.07161    0.11181   1.00
O2       0.11559    0.12022    0.15110   1.00
O2       0.10660    0.98074    0.15071   1.00
C1       -0.06020   0.08610    0.09358   1.00
C1       0.91390    0.85370    0.09358   1.00
C1       0.14630    0.06020    0.09358   1.00
C1       0.85603    0.93337    0.15673   1.00
C1       0.07733    0.14397    0.15673   1.00
C1       0.06663    0.92267    0.15673   1.00
O1       0.66667    0.33333    0.95833   1.00
Zn1      0.66667    0.33333    0.92922   1.00
Zn1      0.61515    0.37621    0.96725   1.00
Zn1      0.76106    0.38485    0.96725   1.00
Zn1      -0.37621   0.23894    0.96725   1.00
O2       0.60527    0.35943    0.91920   1.00
O2       0.75417    0.39473    0.91920   1.00
O2       0.64057    0.24583    0.91920   1.00
O2       0.57972    0.40494    0.94514   1.00
O2       0.67129    0.45355    0.98443   1.00
O2       0.54080    0.31407    0.98404   1.00
O2       0.82523    0.42028    0.94514   1.00
O2       0.77327    0.45920    0.98404   1.00
O2       -0.21774   0.32871    0.98443   1.00
O2       0.59506    0.17477    0.94514   1.00
O2       0.54645    0.21774    0.98443   1.00
O2       -0.31407   0.22673    0.98404   1.00
C1       0.58057    0.39353    0.92691   1.00
C1       0.81297    0.41943    0.92691   1.00
C1       0.60647    0.18703    0.92691   1.00
C1       0.73330    0.47730    0.99006   1.00
C1       0.52270    0.25600    0.99006   1.00
C1       -0.25600   0.26670    0.99006   1.00
O1       0.66667    0.33333    0.20833   1.00
Zn1      0.66667    0.33333    0.23744   1.00
Zn1      0.70954    0.28182    0.19942   1.00
Zn1      0.71818    0.42773    0.19942   1.00
Zn1      0.57227    0.29046    0.19942   1.00
O2       0.69277    0.27193    0.24746   1.00
O2       0.72807    0.42083    0.24746   1.00
O2       0.57917    0.30723    0.24746   1.00
O2       0.73828    0.24638    0.22152   1.00
O2       0.78688    0.33796    0.18224   1.00
O2       0.64740    0.20747    0.18263   1.00
O2       0.75362    0.49189    0.22152   1.00
O2       0.79253    0.43994    0.18263   1.00
O2       0.66204    0.44893    0.18224   1.00
O2       0.50811    0.26172    0.22152   1.00
O2       0.55107    0.21312    0.18224   1.00
O2       0.56006    0.35260    0.18263   1.00
C1       0.72687    0.24723    0.23975   1.00
C1       0.75277    0.47963    0.23975   1.00
C1       0.52037    0.27313    0.23975   1.00
C1       0.81063    0.39997    0.17661   1.00
C1       0.58933    0.18937    0.17661   1.00
C1       0.60003    0.41067    0.17661   1.00
O1       0.66667    0.33333    0.70833   1.00
Zn1      0.66667    0.33333    0.73744   1.00
Zn1      0.71818    0.29046    0.69942   1.00
Zn1      0.57227    0.28182    0.69942   1.00
Zn1      0.70954    0.42773    0.69942   1.00
O2       0.72807    0.30723    0.74746   1.00
O2       0.57917    0.27193    0.74746   1.00
O2       0.69277    0.42083    0.74746   1.00
O2       0.75362    0.26172    0.72152   1.00
O2       0.66204    0.21312    0.68224   1.00
O2       0.79253    0.35260    0.68263   1.00
O2       0.50811    0.24638    0.72152   1.00
O2       0.56006    0.20747    0.68263   1.00
O2       0.55107    0.33796    0.68224   1.00
O2       0.73828    0.49189    0.72152   1.00
O2       0.78688    0.44893    0.68224   1.00
O2       0.64740    0.43994    0.68263   1.00
C1       0.75277    0.27313    0.73975   1.00
C1       0.52037    0.24723    0.73975   1.00
C1       0.72687    0.47963    0.73975   1.00
C1       0.60003    0.18937    0.67661   1.00
C1       0.81063    0.41067    0.67661   1.00
C1       0.58933    0.39997    0.67661   1.00
O1       0.66667    0.33333    0.45833   1.00
Zn1      0.66667    0.33333    0.42922   1.00
Zn1      -0.37621   0.38485    0.46725   1.00
Zn1      0.61515    0.23894    0.46725   1.00
Zn1      0.76106    0.37621    0.46725   1.00
O2       0.64057    0.39473    0.41920   1.00
O2       0.60527    0.24583    0.41920   1.00
O2       0.75417    0.35943    0.41920   1.00
O2       0.59506    0.42028    0.44514   1.00
O2       0.54645    0.32871    0.48443   1.00
O2       -0.31407   0.45920    0.48404   1.00
O2       0.57972    0.17477    0.44514   1.00
O2       0.54080    0.22673    0.48404   1.00
O2       0.67129    0.21774    0.48443   1.00
O2       0.82523    0.40494    0.44514   1.00
O2       -0.21774   0.45355    0.48443   1.00
O2       0.77327    0.31407    0.48404   1.00
C1       0.60647    0.41943    0.42691   1.00
C1       0.58057    0.18703    0.42691   1.00
C1       0.81297    0.39353    0.42691   1.00
C1       0.52270    0.26670    0.49006   1.00
C1       -0.25600   0.47730    0.49006   1.00
C1       0.73330    0.25600    0.49006   1.00
O1       0.33333    0.66667    0.29167   1.00
Zn1      0.33333    0.66667    0.26256   1.00
Zn1      0.28182    0.70954    0.30058   1.00
Zn1      0.42773    0.71818    0.30058   1.00
Zn1      0.29046    0.57227    0.30058   1.00
O2       0.27193    0.69277    0.25254   1.00
O2       0.42083    0.72807    0.25254   1.00
O2       0.30723    0.57917    0.25254   1.00
O2       0.24638    0.73828    0.27848   1.00
O2       0.33796    0.78688    0.31776   1.00
O2       0.20747    0.64740    0.31737   1.00
O2       0.49189    0.75362    0.27848   1.00
O2       0.43994    0.79253    0.31737   1.00
O2       0.44893    0.66204    0.31776   1.00
O2       0.26172    0.50811    0.27848   1.00
O2       0.21312    0.55107    0.31776   1.00
O2       0.35260    0.56006    0.31737   1.00
C1       0.24723    0.72687    0.26025   1.00
C1       0.47963    0.75277    0.26025   1.00
C1       0.27313    0.52037    0.26025   1.00
C1       0.39997    0.81063    0.32339   1.00
C1       0.18937    0.58933    0.32339   1.00
C1       0.41067    0.60003    0.32339   1.00
O1       0.33333    0.66667    0.54167   1.00
Zn1      0.33333    0.66667    0.57078   1.00
Zn1      0.37621    0.61515    0.53275   1.00
Zn1      0.38485    0.76106    0.53275   1.00
Zn1      0.23894    -0.37621   0.53275   1.00
O2       0.35943    0.60527    0.58080   1.00
O2       0.39473    0.75417    0.58080   1.00
O2       0.24583    0.64057    0.58080   1.00
O2       0.40494    0.57972    0.55486   1.00
O2       0.45355    0.67129    0.51557   1.00
O2       0.31407    0.54080    0.51596   1.00
O2       0.42028    0.82523    0.55486   1.00
O2       0.45920    0.77327    0.51596   1.00
O2       0.32871    -0.21774   0.51557   1.00
O2       0.17477    0.59506    0.55486   1.00
O2       0.21774    0.54645    0.51557   1.00
O2       0.22673    -0.31407   0.51596   1.00
C1       0.39353    0.58057    0.57309   1.00
C1       0.41943    0.81297    0.57309   1.00
C1       0.18703    0.60647    0.57309   1.00
C1       0.47730    0.73330    0.50994   1.00
C1       0.25600    0.52270    0.50994   1.00
C1       0.26670    -0.25600   0.50994   1.00
O1       0.33333    0.66667    0.04167   1.00
Zn1      0.33333    0.66667    0.07078   1.00
Zn1      0.38485    -0.37621   0.03275   1.00
Zn1      0.23894    0.61515    0.03275   1.00
Zn1      0.37621    0.76106    0.03275   1.00
O2       0.39473    0.64057    0.08080   1.00
O2       0.24583    0.60527    0.08080   1.00
O2       0.35943    0.75417    0.08080   1.00
O2       0.42028    0.59506    0.05486   1.00
O2       0.32871    0.54645    0.01557   1.00
O2       0.45920    -0.31407   0.01596   1.00
O2       0.17477    0.57972    0.05486   1.00
O2       0.22673    0.54080    0.01596   1.00
O2       0.21774    0.67129    0.01557   1.00
O2       0.40494    0.82523    0.05486   1.00
O2       0.45355    -0.21774   0.01557   1.00
O2       0.31407    0.77327    0.01596   1.00
C1       0.41943    0.60647    0.07309   1.00
C1       0.18703    0.58057    0.07309   1.00
C1       0.39353    0.81297    0.07309   1.00
C1       0.26670    0.52270    0.00994   1.00
C1       0.47730    -0.25600   0.00994   1.00
C1       0.25600    0.73330    0.00994   1.00
O1       0.33333    0.66667    0.79167   1.00
Zn1      0.33333    0.66667    0.76256   1.00
Zn1      0.29046    0.71818    0.80058   1.00
Zn1      0.28182    0.57227    0.80058   1.00
Zn1      0.42773    0.70954    0.80058   1.00
O2       0.30723    0.72807    0.75254   1.00
O2       0.27193    0.57917    0.75254   1.00
O2       0.42083    0.69277    0.75254   1.00
O2       0.26172    0.75362    0.77848   1.00
O2       0.21312    0.66204    0.81776   1.00
O2       0.35260    0.79253    0.81737   1.00
O2       0.24638    0.50811    0.77848   1.00
O2       0.20747    0.56006    0.81737   1.00
O2       0.33796    0.55107    0.81776   1.00
O2       0.49189    0.73828    0.77848   1.00
O2       0.44893    0.78688    0.81776   1.00
O2       0.43994    0.64740    0.81737   1.00
C1       0.27313    0.75277    0.76025   1.00
C1       0.24723    0.52037    0.76025   1.00
C1       0.47963    0.72687    0.76025   1.00
C1       0.18937    0.60003    0.82339   1.00
C1       0.41067    0.81063    0.82339   1.00
C1       0.39997    0.58933    0.82339   1.00
C5       0.11744    0.95174    0.55425   1.00
H2       0.09252    0.98301    0.55601   1.00
H2       0.13019    0.95411    0.53789   1.00
C5       0.18309    0.98260    0.56726   1.00
H2       0.22614    1.02613    0.55926   1.00
H2       0.19730    0.94307    0.57052   1.00
O_3      -0.09177   0.59969    0.54723   1.00
C4       -0.13657   0.69533    0.54850   1.00
C3c      -0.07825   0.75923    0.54527   1.00
H1       -0.05175   0.77003    0.53092   1.00
C3d      -0.17091   0.68264    0.56720   1.00
C3       -0.05266   0.80964    0.56049   1.00
O2       -0.00050   0.87358    0.55540   1.00
C3       -0.14481   0.73225    0.58253   1.00
H1       -0.17149   0.71932    0.59688   1.00
C2       -0.08547   0.79687    0.57960   1.00
C5       -0.12409   0.54769    0.56188   1.00
H2       -0.14877   0.49580    0.55499   1.00
H2       -0.16381   0.55311    0.57033   1.00
C5       -0.06978   0.55408    0.57669   1.00
H2       -0.04380   0.60658    0.58315   1.00
H2       -0.03075   0.54795    0.56813   1.00
C5       -0.10109   0.50072    0.59363   1.00
H2       -0.12753   0.44819    0.58727   1.00
H2       -0.13835   0.50828    0.60263   1.00
H2       -0.06043   0.50521    0.60404   1.00
C5       -0.28637   0.61488    0.56484   1.00
C5       0.06302    0.87907    0.56004   1.00
H2       -0.28590   0.62110    0.54810   1.00
H2       -0.29499   0.65442    0.57213   1.00
H2       0.06990    0.84121    0.55104   1.00
H2       0.06764    0.86934    0.57644   1.00
H2       0.17614    1.00338    0.58189   1.00
H2       -0.40643   0.51973    0.54251   1.00
H2       -0.42384   0.56832    0.56112   1.00
C2       -0.21240   0.53729    0.50367   1.00
C3       -0.23281   0.58687    0.50336   1.00
O2       -0.28898   0.57603    0.49223   1.00
C3       -0.16423   0.54335    0.51840   1.00
H1       -0.14624   0.50725    0.51871   1.00
C3a      -0.20639   0.63969    0.51790   1.00
H1       -0.22545   0.67496    0.51819   1.00
C3b      -0.13972   0.59465    0.53325   1.00
C4       -0.16085   0.64328    0.53311   1.00
O_3      -0.22545   0.61887    0.57170   1.00
C5       -0.26821   0.61353    0.47398   1.00
H2       -0.23608   0.66936    0.47698   1.00
C5       -0.33304   0.59975    0.46275   1.00
H2       -0.23860   0.59698    0.46437   1.00
H2       -0.35200   0.63214    0.46957   1.00
H2       -0.37262   0.54582    0.46581   1.00
C5       -0.32202   0.61272    0.43973   1.00
H2       -0.27876   0.66502    0.43698   1.00
H2       -0.36854   0.60775    0.43237   1.00
H2       -0.31140   0.57469    0.43223   1.00
C5       -0.34488   0.54457    0.57043   1.00
H2       -0.35271   0.54278    0.58715   1.00
H2       -0.32927   0.50627    0.56680   1.00
C5       -0.41097   0.52728    0.55905   1.00
H2       -0.45405   0.47905    0.56503   1.00
C5       0.12849    0.26609    0.57849   1.00
H2       0.08051    0.21778    0.57531   1.00
H2       0.13653    0.29987    0.56531   1.00
C5       0.12020    0.29834    0.59820   1.00
H2       0.09291    0.32689    0.59514   1.00
H2       0.17114    0.33389    0.60480   1.00
O_3      0.43521    0.27737    0.55750   1.00
C4       0.30439    0.16818    0.54841   1.00
C3c      0.25958    0.19356    0.55098   1.00
H1       0.26383    0.23382    0.54119   1.00
C3d      0.29735    0.11504    0.56113   1.00
C3       0.20947    0.16835    0.56629   1.00
O2       0.16226    0.18972    0.56629   1.00
C3       0.24836    0.09073    0.57664   1.00
H1       0.24646    0.05164    0.58648   1.00
C2       0.20312    0.11635    0.57959   1.00
C5       0.47527    0.25659    0.56845   1.00
H2       0.52508    0.27255    0.56090   1.00
H2       0.44797    0.20005    0.57035   1.00
C5       0.48912    0.28993    0.58923   1.00
H2       0.43936    0.27552    0.59655   1.00
H2       0.51695    0.34633    0.58716   1.00
C5       0.53056    0.26802    0.60246   1.00
H2       0.58011    0.28182    0.59517   1.00
H2       0.50180    0.21199    0.60512   1.00
H2       0.54146    0.29406    0.61742   1.00
C5       0.32139    0.03940    0.54566   1.00
C5       0.18442    0.24692    0.57916   1.00
H2       0.31938    0.05834    0.53026   1.00
H2       0.26999    -0.00436   0.54944   1.00
H2       0.23360    0.29008    0.57352   1.00
H2       0.19295    0.23601    0.59511   1.00
H2       0.08890    0.25838    0.60966   1.00
H2       0.38044    0.00289    0.51255   1.00
H2       0.31126    -0.07095   0.52500   1.00
C2       0.46269    0.24795    0.50366   1.00
C3       0.39648    0.19560    0.49846   1.00
O2       0.38578    0.15818    0.48095   1.00
C3       0.47407    0.27515    0.52352   1.00
H1       0.52372    0.31645    0.52782   1.00
C3a      0.34421    0.17066    0.51317   1.00
H1       0.29483    0.12796    0.50930   1.00
C3b      0.42255    0.24876    0.53830   1.00
C4       0.35703    0.19601    0.53321   1.00
O_3      0.34341    0.09185    0.56024   1.00
C5       0.35793    0.18077    0.46572   1.00
H2       0.30825    0.17536    0.47061   1.00
C5       0.34656    0.13623    0.44702   1.00
H2       0.39356    0.23522    0.46181   1.00
H2       0.29861    0.08672    0.44922   1.00
H2       0.38880    0.12450    0.44652   1.00
C5       0.34359    0.17040    0.42711   1.00
H2       0.30484    0.18661    0.42849   1.00
H2       0.32959    0.13439    0.41413   1.00
H2       0.39427    0.21559    0.42337   1.00
C5       0.37277    0.01470    0.54549   1.00
H2       0.36627    -0.01474   0.55965   1.00
H2       0.42497    0.06016    0.54596   1.00
C5       0.36486    -0.02875   0.52663   1.00
H2       0.39809    -0.05166   0.52804   1.00
C5       0.75010    0.05854    0.63197   1.00
H2       0.74167    0.00612    0.63018   1.00
H2       0.69916    0.05393    0.63025   1.00
C5       0.77944    0.08585    0.65333   1.00
H2       0.73806    0.06616    0.66488   1.00
H2       0.80643    0.14259    0.65339   1.00
O_3      0.86842    0.27407    0.54817   1.00
C4       0.83098    0.13534    0.54841   1.00
C3c      0.79632    0.10888    0.56678   1.00
H1       0.74848    0.10732    0.56952   1.00
C3d      0.89274    0.13602    0.54502   1.00
C3       0.82300    0.08503    0.58196   1.00
O2       0.78235    0.05231    0.59844   1.00
C3       0.92009    0.11352    0.56026   1.00
H1       0.96878    0.11726    0.55726   1.00
C2       0.88607    0.08729    0.57902   1.00
C5       0.93415    0.31631    0.54005   1.00
H2       0.93377    0.34861    0.52735   1.00
H2       0.95661    0.28543    0.53433   1.00
C5       0.97887    0.36278    0.55695   1.00
H2       0.97772    0.33053    0.56988   1.00
H2       0.95632    0.39380    0.56242   1.00
C5       1.05222    0.40898    0.54958   1.00
H2       1.05370    0.44100    0.53658   1.00
H2       1.07559    0.37811    0.54478   1.00
H2       1.08376    0.44361    0.56201   1.00
C5       0.90993    0.11778    0.51207   1.00
C5       0.79643    0.09953    0.61431   1.00
H2       0.85581    0.09907    0.50792   1.00
H2       0.91562    0.07318    0.51631   1.00
H2       0.78473    0.13969    0.60936   1.00
H2       0.85113    0.12583    0.61911   1.00
H2       0.81558    0.06843    0.65817   1.00
H2       0.87692    0.11122    0.46950   1.00
H2       0.91339    0.05814    0.47603   1.00
C2       0.75637    0.21567    0.50263   1.00
C3       0.73407    0.14525    0.50309   1.00
O2       0.70251    0.10489    0.48640   1.00
C3       0.80079    0.25764    0.51813   1.00
H1       0.81738    0.31143    0.51850   1.00
C3a      0.75769    0.11893    0.51850   1.00
H1       0.74324    0.06565    0.51797   1.00
C3b      0.82590    0.23170    0.53305   1.00
C4       0.80451    0.16188    0.53330   1.00
O_3      0.93138    0.16623    0.52786   1.00
C5       0.63136    0.06680    0.48946   1.00
H2       0.61836    0.03317    0.50307   1.00
C5       0.60039    0.02276    0.47054   1.00
H2       0.60964    0.10104    0.49149   1.00
H2       0.60726    -0.02250   0.47165   1.00
H2       0.63102    0.05292    0.45725   1.00
C5       0.52448    0.00033    0.46758   1.00
H2       0.49562    -0.02492   0.48160   1.00
H2       0.50236    -0.03613   0.45470   1.00
H2       0.51760    0.04471    0.46386   1.00
C5       0.95456    0.15285    0.49369   1.00
H2       1.00651    0.16094    0.49665   1.00
H2       0.95984    0.20428    0.49217   1.00
C5       0.92455    0.11156    0.47409   1.00
H2       0.96167    0.13488    0.46146   1.00
C5       0.67914    -0.11271   0.86448   1.00
H2       0.71587    -0.05705   0.86408   1.00
H2       0.62765    -0.11803   0.86468   1.00
C5       0.68820    -0.14666   0.84527   1.00
H2       0.66102    -0.14037   0.83211   1.00
H2       0.66779    -0.20202   0.84802   1.00
O_3      0.61455    -0.27671   0.95792   1.00
C4       0.69553    -0.13527   0.95156   1.00
C3c      0.68196    -0.12367   0.93162   1.00
H1       0.63140    -0.13387   0.92763   1.00
C3d      0.76200    -0.12072   0.95651   1.00
C3       0.73270    -0.09981   0.91651   1.00
O2       0.71801    -0.08180   0.89805   1.00
C3       0.81229    -0.09820   0.94141   1.00
H1       0.86186    -0.09004   0.94576   1.00
C2       0.79923    -0.08692   0.92112   1.00
C5       0.64862    -0.30376   0.96917   1.00
H2       0.61921    -0.33224   0.98285   1.00
H2       0.69987    -0.26258   0.97423   1.00
C5       0.65737    -0.35275   0.95545   1.00
H2       0.68508    -0.32477   0.94151   1.00
H2       0.60589    -0.39397   0.95065   1.00
C5       0.69631    -0.38278   0.96631   1.00
H2       0.66916    -0.41039   0.98031   1.00
H2       0.74858    -0.34188   0.97048   1.00
H2       0.70089    -0.41959   0.95620   1.00
C5       0.79504    -0.08046   0.98867   1.00
C5       0.69271    -0.13779   0.88456   1.00
H2       0.75234    -0.07001   0.99064   1.00
H2       0.84059    -0.03322   0.98298   1.00
H2       0.64447    -0.18120   0.89062   1.00
H2       0.72942    -0.15664   0.88224   1.00
H2       0.74307    -0.12239   0.84080   1.00
H2       0.76270    -0.05890   1.02940   1.00
H2       0.84931    0.00308    1.02195   1.00
C2       0.54151    -0.21500   0.99761   1.00
C3       0.57904    -0.14411   0.99396   1.00
O2       0.57925    -0.09894   1.00805   1.00
C3       0.55381    -0.25849   0.98509   1.00
H1       0.52469    -0.31311   0.98715   1.00
C3a      0.62864    -0.11837   0.97845   1.00
H1       0.65963    -0.06374   0.97661   1.00
C3b      0.60467    -0.23258   0.97011   1.00
C4       0.64267    -0.16203   0.96671   1.00
O_3      0.77667    -0.13612   0.97550   1.00
C5       0.53539    -0.07498   1.00178   1.00
H2       0.55144    -0.04847   0.98682   1.00
C5       0.53936    -0.02458   1.01794   1.00
H2       0.48180    -0.11774   1.00050   1.00
H2       0.58661    0.02524    1.01534   1.00
H2       0.54556    -0.04364   1.03291   1.00
C5       0.47625    -0.01549   1.01805   1.00
H2       0.46771    -0.00171   1.00259   1.00
H2       0.48352    0.02559    1.02878   1.00
H2       0.42963    -0.06302   1.02317   1.00
C5       0.81191    -0.09916   1.00919   1.00
H2       0.86151    -0.09801   1.00792   1.00
H2       0.77246    -0.15275   1.01273   1.00
C5       0.81448    -0.05116   1.02614   1.00
H2       0.83378    -0.06176   1.04038   1.00
C5       0.26560    0.12788    0.92169   1.00
H2       0.21718    0.07998    0.92485   1.00
H2       0.29924    0.13582    0.93490   1.00
C5       0.29793    0.11946    0.90202   1.00
H2       0.32632    0.09204    0.90512   1.00
H2       0.33364    0.17037    0.89543   1.00
O_3      0.27770    0.43506    0.94254   1.00
C4       0.16817    0.30439    0.95159   1.00
C3c      0.19339    0.25942    0.94907   1.00
H1       0.23352    0.26355    0.95889   1.00
C3d      0.11521    0.29751    0.93882   1.00
C3       0.16819    0.20931    0.93376   1.00
O2       0.18936    0.16195    0.93380   1.00
C3       0.09091    0.24852    0.92331   1.00
H1       0.05195    0.24675    0.91343   1.00
C2       0.11636    0.20312    0.92041   1.00
C5       0.25717    0.47526    0.93155   1.00
H2       0.27321    0.52510    0.93909   1.00
H2       0.20065    0.44810    0.92961   1.00
C5       0.29067    0.48902    0.91079   1.00
H2       0.27618    0.43922    0.90349   1.00
H2       0.34706    0.51670    0.91291   1.00
C5       0.26904    0.53059    0.89753   1.00
H2       0.28293    0.58019    0.90480   1.00
H2       0.21303    0.50197    0.89483   1.00
H2       0.29520    0.54143    0.88259   1.00
C5       0.03965    0.32184    0.95420   1.00
C5       0.24665    0.18396    0.92098   1.00
H2       0.05842    0.31977    0.96962   1.00
H2       -0.00418   0.27050    0.95041   1.00
H2       0.28986    0.23308    0.92664   1.00
H2       0.23592    0.19254    0.90501   1.00
H2       0.25802    0.08824    0.89054   1.00
H2       0.00311    0.38111    0.98725   1.00
H2       -0.07073   0.31206    0.97476   1.00
C2       0.24797    0.46269    0.99634   1.00
C3       0.19545    0.39655    1.00152   1.00
O2       0.15791    0.38595    1.01899   1.00
C3       0.27533    0.47400    0.97650   1.00
H1       0.31676    0.52360    0.97222   1.00
C3a      0.17049    0.34427    0.98681   1.00
H1       0.12767    0.29495    0.99066   1.00
C3b      0.24893    0.42248    0.96172   1.00
C4       0.19601    0.35703    0.96680   1.00
O_3      0.09220    0.34373    0.93966   1.00
C5       0.18024    0.35799    1.03427   1.00
H2       0.17471    0.30824    1.02939   1.00
C5       0.13558    0.34674    1.05292   1.00
H2       0.23468    0.39349    1.03821   1.00
H2       0.08601    0.29888    1.05070   1.00
H2       0.12400    0.38910    1.05340   1.00
C5       0.16952    0.34366    1.07287   1.00
H2       0.18559    0.30480    1.07153   1.00
H2       0.13342    0.32976    1.08582   1.00
H2       0.21477    0.39427    1.07663   1.00
C5       0.01515    0.37339    0.95433   1.00
H2       -0.01415   0.36697    0.94013   1.00
H2       0.06071    0.42553    0.95387   1.00
C5       -0.02841   0.36561    0.97315   1.00
H2       -0.05116   0.39897    0.97169   1.00
C5       0.05846    0.75005    0.86803   1.00
H2       0.00605    0.74163    0.86983   1.00
H2       0.05384    0.69910    0.86976   1.00
C5       0.08576    0.77937    0.84668   1.00
H2       0.06605    0.73798    0.83512   1.00
H2       0.14249    0.80634    0.84661   1.00
O_3      0.27406    0.86838    0.95182   1.00
C4       0.13534    0.83098    0.95159   1.00
C3c      0.10886    0.79630    0.93322   1.00
H1       0.10728    0.74846    0.93048   1.00
C3d      0.13604    0.89275    0.95498   1.00
C3       0.08501    0.82299    0.91804   1.00
O2       0.05226    0.78233    0.90157   1.00
C3       0.11354    0.92010    0.93974   1.00
H1       0.11730    0.96880    0.94274   1.00
C2       0.08729    0.88607    0.92098   1.00
C5       0.31632    0.93412    0.95993   1.00
H2       0.34862    0.93373    0.97264   1.00
H2       0.28546    0.95659    0.96566   1.00
C5       0.36278    0.97881    0.94303   1.00
H2       0.33052    0.97766    0.93011   1.00
H2       0.39379    0.95625    0.93756   1.00
C5       0.40901    1.05217    0.95040   1.00
H2       0.44103    1.05365    0.96339   1.00
H2       0.37815    1.07555    0.95520   1.00
H2       0.44363    1.08369    0.93797   1.00
C5       0.11784    0.90998    0.98793   1.00
C5       0.09947    0.79639    0.88569   1.00
H2       0.09911    0.85586    0.99208   1.00
H2       0.07324    0.91568    0.98369   1.00
H2       0.13963    0.78467    0.89064   1.00
H2       0.12578    0.85108    0.88089   1.00
H2       0.06835    0.81552    0.84183   1.00
H2       0.11130    0.87700    1.03049   1.00
H2       0.05823    0.91348    1.02397   1.00
C2       0.21567    0.75637    0.99737   1.00
C3       0.14526    0.73409    0.99691   1.00
O2       0.10490    0.70254    1.01361   1.00
C3       0.25764    0.80077    0.98187   1.00
H1       0.31142    0.81735    0.98149   1.00
C3a      0.11893    0.75771    0.98151   1.00
H1       0.06566    0.74327    0.98203   1.00
C3b      0.23169    0.82588    0.96695   1.00
C4       0.16188    0.80451    0.96670   1.00
O_3      0.16628    0.93140    0.97214   1.00
C5       0.06679    0.63140    1.01055   1.00
H2       0.03316    0.61840    0.99694   1.00
C5       0.02277    0.60046    1.02948   1.00
H2       0.10102    0.60966    1.00852   1.00
H2       -0.02248   0.60734    1.02837   1.00
H2       0.05294    0.63109    1.04276   1.00
C5       0.00032    0.52454    1.03244   1.00
H2       -0.02495   0.49567    1.01842   1.00
H2       -0.03614   0.50243    1.04532   1.00
H2       0.04469    0.51764    1.03615   1.00
C5       0.15293    0.95461    1.00631   1.00
H2       0.16103    1.00657    1.00334   1.00
H2       0.20436    0.95989    1.00782   1.00
C5       0.11165    0.92463    1.02591   1.00
H2       0.13499    0.96176    1.03853   1.00
C5       -0.04014   0.01232    0.45685   1.00
H2       -0.07851   0.01048    0.44600   1.00
H2       -0.05989   0.01320    0.47221   1.00
C5       -0.03362   -0.05209   0.45421   1.00
H2       -0.07526   -0.09629   0.46242   1.00
H2       0.01642    -0.04244   0.46018   1.00
O_3      0.24807    0.32764    0.47523   1.00
C4       0.13560    0.30512    0.45136   1.00
C3c      0.08406    0.23807    0.45556   1.00
H1       0.06268    0.22489    0.47065   1.00
C3d      0.16207    0.32147    0.43153   1.00
C3       0.06001    0.18694    0.44056   1.00
O2       0.00394    0.12482    0.44510   1.00
C3       0.13916    0.27038    0.41666   1.00
H1       0.16268    0.28478    0.40186   1.00
C2       0.08760    0.20214    0.42071   1.00
C5       0.31076    0.36551    0.46494   1.00
H2       0.34758    0.41176    0.47357   1.00
H2       0.30318    0.38209    0.44969   1.00
C5       0.34136    0.31965    0.46233   1.00
H2       0.30378    0.27254    0.45420   1.00
H2       0.34930    0.30393    0.47764   1.00
C5       0.40880    0.35621    0.45058   1.00
H2       0.44641    0.40355    0.45854   1.00
H2       0.40053    0.36981    0.43504   1.00
H2       0.43114    0.32243    0.44922   1.00
C5       0.19155    0.42920    0.42154   1.00
C5       0.02516    0.07993    0.45263   1.00
H2       0.16327    0.43592    0.43428   1.00
H2       0.15718    0.40965    0.40807   1.00
H2       0.05497    0.10073    0.46690   1.00
H2       0.05831    0.07210    0.44166   1.00
H2       -0.03831   -0.06747   0.43791   1.00
H2       0.22180    0.56611    0.43096   1.00
H2       0.18999    0.54041    0.40528   1.00
C2       0.21621    0.46093    0.49688   1.00
C3       0.15756    0.44812    0.48583   1.00
O2       0.13582    0.49519    0.48576   1.00
C3       0.24505    0.41907    0.49321   1.00
H1       0.28889    0.42642    0.50178   1.00
C3a      0.13039    0.39564    0.47118   1.00
H1       0.08785    0.38902    0.46204   1.00
C3b      0.21923    0.36838    0.47818   1.00
C4       0.16156    0.35639    0.46699   1.00
O_3      0.21638    0.38535    0.42700   1.00
C5       0.07969    0.47413    0.49893   1.00
H2       0.03611    0.42362    0.49429   1.00
C5       0.05801    0.52813    0.49774   1.00
H2       0.09399    0.47026    0.51485   1.00
H2       0.02705    0.51894    0.48374   1.00
H2       0.10512    0.57856    0.49575   1.00
C5       0.01793    0.52867    0.51658   1.00
H2       -0.02587   0.47662    0.51925   1.00
H2       -0.00183   0.56445    0.51442   1.00
H2       0.05111    0.54633    0.53037   1.00
C5       0.25281    0.49825    0.41634   1.00
H2       0.27403    0.49380    0.40155   1.00
H2       0.29298    0.51060    0.42799   1.00
C5       0.23416    0.55493    0.41555   1.00
H2       0.27803    0.60280    0.40968   1.00
C5       0.72372    0.71031    0.37745   1.00
H2       0.72754    0.75158    0.36747   1.00
H2       0.66949    0.66915    0.37686   1.00
C5       0.77056    0.68422    0.36923   1.00
H2       0.74528    0.64728    0.35662   1.00
H2       0.78316    0.65882    0.38158   1.00
O_3      0.69535    0.74347    0.48142   1.00
C4       0.69502    0.83173    0.45141   1.00
C3c      0.68625    0.79779    0.43287   1.00
H1       0.63936    0.75072    0.42995   1.00
C3d      0.75611    0.89350    0.45480   1.00
C3       0.73778    0.82322    0.41798   1.00
O2       0.72236    0.79186    0.39931   1.00
C3       0.80804    0.91827    0.44017   1.00
H1       0.85494    0.96455    0.44374   1.00
C2       0.80030    0.88420    0.42143   1.00
C5       0.74375    0.77839    0.49684   1.00
H2       0.72027    0.76662    0.51224   1.00
H2       0.76971    0.83470    0.49454   1.00
C5       0.79649    0.75568    0.49591   1.00
H2       0.81859    0.76567    0.48035   1.00
H2       0.77011    0.69950    0.49841   1.00
C5       0.85264    0.79317    0.51178   1.00
H2       0.83087    0.78380    0.52735   1.00
H2       0.88057    0.84907    0.50887   1.00
H2       0.88988    0.77481    0.51117   1.00
C5       0.74290    0.97086    0.47350   1.00
C5       0.74151    0.74125    0.39876   1.00
H2       0.68659    0.94261    0.47152   1.00
H2       0.76606    1.01011    0.46131   1.00
H2       0.71247    0.70130    0.41040   1.00
H2       0.79704    0.76239    0.40191   1.00
H2       0.81884    0.72689    0.36284   1.00
H2       0.66295    1.00404    0.50039   1.00
H2       0.72341    1.07649    0.48533   1.00
C2       0.54341    0.75303    0.49816   1.00
C3       0.54015    0.79428    0.48265   1.00
O2       0.49978    0.82355    0.48493   1.00
C3       0.59554    0.73596    0.49723   1.00
H1       0.59837    0.70304    0.50858   1.00
C3a      0.58941    0.81874    0.46704   1.00
H1       0.58854    0.85342    0.45593   1.00
C3b      0.64573    0.76214    0.48205   1.00
C4       0.64304    0.80400    0.46682   1.00
O_3      0.76936    0.92616    0.47338   1.00
C5       0.43893    0.78679    0.47372   1.00
H2       0.44969    0.78599    0.45722   1.00
C5       0.39774    0.82294    0.47675   1.00
H2       0.40871    0.73321    0.47924   1.00
H2       0.41887    0.86817    0.46655   1.00
H2       0.40686    0.84287    0.49257   1.00
C5       0.32083    0.77601    0.47284   1.00
H2       0.31301    0.75237    0.45759   1.00
H2       0.29352    0.80543    0.47351   1.00
H2       0.29706    0.73513    0.48461   1.00
C5       0.75975    1.00646    0.49402   1.00
H2       0.81546    1.04376    0.49452   1.00
H2       0.74925    0.96766    0.50598   1.00
C5       0.71806    1.04199    0.49809   1.00
H2       0.73666    1.07318    0.51213   1.00
C5       0.22969    0.13848    0.43274   1.00
H2       0.24368    0.13663    0.41670   1.00
H2       0.27849    0.16386    0.44128   1.00
C5       0.19321    0.18069    0.43422   1.00
H2       0.23090    0.23630    0.43446   1.00
H2       0.16182    0.16692    0.44827   1.00
O_3      0.11926    -0.15400   0.49126   1.00
C4       0.16911    -0.13623   0.45130   1.00
C3c      0.19930    -0.06616   0.44725   1.00
H1       0.24361    -0.03025   0.45579   1.00
C3d      0.11200    -0.18223   0.43980   1.00
C3       0.17251    -0.04121   0.43243   1.00
O2       0.20952    0.02698    0.42760   1.00
C3       0.08442    -0.15748   0.42530   1.00
H1       0.03915    -0.19452   0.41737   1.00
C2       0.11387    -0.08672   0.42117   1.00
C5       0.05533    -0.21381   0.49361   1.00
H2       0.05584    -0.24727   0.50593   1.00
H2       0.03914    -0.24402   0.47927   1.00
C5       0.00364    -0.19226   0.49905   1.00
H2       0.00451    -0.15727   0.48702   1.00
H2       0.01997    -0.16270   0.51349   1.00
C5       -0.06808   -0.25440   0.50119   1.00
H2       -0.06921   -0.28979   0.51308   1.00
H2       -0.08538   -0.28261   0.48659   1.00
H2       -0.10488   -0.23773   0.50561   1.00
C5       0.10708    -0.28363   0.43346   1.00
C5       0.18680    0.06395    0.43938   1.00
H2       0.16106    -0.26353   0.43806   1.00
H2       0.10529    -0.27700   0.41674   1.00
H2       0.19491    0.05879    0.45583   1.00
H2       0.13128    0.04560    0.43719   1.00
H2       0.15976    0.17187    0.42075   1.00
H2       0.15077    -0.38113   0.44185   1.00
H2       0.12034    -0.38685   0.41601   1.00
C2       0.24352    -0.21463   0.49771   1.00
C3       0.27182    -0.20272   0.47803   1.00
O2       0.31046    -0.23129   0.47208   1.00
C3       0.19298    -0.19692   0.50182   1.00
H1       0.17157    -0.20376   0.51686   1.00
C3a      0.24811    -0.17542   0.46295   1.00
H1       0.26749    -0.17025   0.44767   1.00
C3b      0.16796    -0.17183   0.48661   1.00
C4       0.19540    -0.16101   0.46698   1.00
O_3      0.07734    -0.25121   0.44423   1.00
C5       0.38046    -0.18200   0.47270   1.00
H2       0.39241    -0.13815   0.46245   1.00
C5       0.41955    -0.21719   0.46560   1.00
H2       0.39664    -0.16225   0.48841   1.00
H2       0.41760    -0.21991   0.44874   1.00
H2       0.39133    -0.27077   0.47120   1.00
C5       0.49406    -0.18103   0.47307   1.00
H2       0.51989    -0.12631   0.46873   1.00
H2       0.52234    -0.20459   0.46623   1.00
H2       0.49685    -0.18549   0.48990   1.00
C5       0.06663    -0.35932   0.43850   1.00
H2       0.01615    -0.38176   0.43082   1.00
H2       0.05662    -0.36473   0.45513   1.00
C5       0.10472    -0.39684   0.43221   1.00
H2       0.07094    -0.45273   0.43415   1.00
C5       0.31207    0.07065    0.13302   1.00
H2       0.29416    0.10509    0.13877   1.00
H2       0.36856    0.09986    0.13424   1.00
C5       0.28239    0.00583    0.14638   1.00
H2       0.31291    0.01558    0.16049   1.00
H2       0.28237    -0.03657   0.13784   1.00
O_3      0.33747    0.04696    0.02847   1.00
C4       0.30475    0.13662    0.04852   1.00
C3c      0.32041    0.13503    0.06905   1.00
H1       0.37270    0.15350    0.07353   1.00
C3d      0.23643    0.11321    0.04304   1.00
C3       0.26918    0.10885    0.08403   1.00
O2       0.28926    0.11660    0.10402   1.00
C3       0.18514    0.08592    0.05786   1.00
H1       0.13319    0.06634    0.05284   1.00
C2       0.20000    0.08323    0.07866   1.00
C5       0.28963    0.00810    0.01331   1.00
H2       0.31417    0.01328    -0.00175   1.00
H2       0.25022    0.02360    0.01161   1.00
C5       0.25511    -0.06625   0.01972   1.00
H2       0.23223    -0.07112   0.03502   1.00
H2       0.29483    -0.08134   0.02118   1.00
C5       0.20034    -0.11204   0.00437   1.00
H2       0.22276    -0.10707   -0.01098   1.00
H2       0.15942    -0.09856   0.00342   1.00
H2       0.17673    -0.16632   0.00908   1.00
C5       0.22397    0.17148    0.01673   1.00
C5       0.29062    0.05796    0.11070   1.00
H2       0.27768    0.21374    0.01787   1.00
H2       0.19108    0.18483    0.02600   1.00
H2       0.32833    0.05097    0.10166   1.00
H2       0.24002    0.01033    0.10909   1.00
H2       0.22921    -0.01032   0.15134   1.00
H2       0.28007    0.26370    -0.01726   1.00
H2       0.20630    0.26315    -0.00618   1.00
C2       0.45712    0.20842    0.00200   1.00
C3       0.44410    0.25489    0.01260   1.00
O2       0.46682    0.31953    0.00503   1.00
C3       0.42123    0.13898    0.00783   1.00
H1       0.43130    0.10243    0.00037   1.00
C3a      0.39490    0.23105    0.02823   1.00
H1       0.38273    0.26658    0.03541   1.00
C3b      0.37079    0.11508    0.02293   1.00
C4       0.35715    0.16116    0.03324   1.00
O_3      0.21764    0.10890    0.02288   1.00
C5       0.52570    0.36747    0.01556   1.00
H2       0.51524    0.36769    0.03210   1.00
C5       0.54691    0.43760    0.00654   1.00
H2       0.56801    0.35624    0.01364   1.00
H2       0.51393    0.45614    0.01319   1.00
H2       0.53522    0.43039    -0.00999   1.00
C5       0.62285    0.48996    0.01007   1.00
H2       0.63480    0.49251    0.02650   1.00
H2       0.63495    0.54157    0.00483   1.00
H2       0.65670    0.47638    0.00132   1.00
C5       0.20162    0.16393    -0.00535   1.00
H2       0.14522    0.13027    -0.00601   1.00
H2       0.22429    0.13717    -0.01365   1.00
C5       0.22357    0.23334    -0.01534   1.00
H2       0.20042    0.22553    -0.03067   1.00
C5       0.72283    0.70959    0.12671   1.00
H2       0.76843    0.71785    0.13535   1.00
H2       0.68581    0.65406    0.12767   1.00
C5       0.69284    0.75086    0.13660   1.00
H2       0.66053    0.72317    0.14991   1.00
H2       0.66139    0.75975    0.12538   1.00
O_3      0.73087    0.68531    0.02161   1.00
C4       0.83179    0.69510    0.04857   1.00
C3c      0.80253    0.68332    0.06798   1.00
H1       0.75920    0.63408    0.07159   1.00
C3d      0.88883    0.75930    0.04427   1.00
C3       0.82783    0.73477    0.08290   1.00
O2       0.80202    0.71703    0.10224   1.00
C3       0.91333    0.81104    0.05895   1.00
H1       0.95566    0.86020    0.05472   1.00
C2       0.88388    0.80023    0.07859   1.00
C5       0.75776    0.73449    0.00599   1.00
H2       0.74359    0.71092    -0.00938   1.00
H2       0.81452    0.76513    0.00689   1.00
C5       0.72859    0.78158    0.00862   1.00
H2       0.74110    0.80366    0.02418   1.00
H2       0.67196    0.75056    0.00750   1.00
C5       0.75721    0.83832    -0.00739   1.00
H2       0.74531    0.81663    -0.02297   1.00
H2       0.81350    0.87079    -0.00583   1.00
H2       0.73417    0.87133    -0.00550   1.00
C5       0.96584    0.75518    0.02286   1.00
C5       0.74719    0.72947    0.10480   1.00
H2       0.94292    0.69914    0.02475   1.00
H2       1.00787    0.78144    0.03413   1.00
H2       0.70521    0.69762    0.09400   1.00
H2       0.76241    0.78398    0.10198   1.00
H2       0.73410    0.80104    0.14244   1.00
H2       1.00147    0.68334    -0.00644   1.00
H2       1.07503    0.74836    0.00725   1.00
C2       0.75246    0.54330    0.00188   1.00
C3       0.80039    0.54496    0.01590   1.00
O2       0.83470    0.51020    0.01193   1.00
C3       0.72926    0.59044    0.00431   1.00
H1       0.69128    0.58934    -0.00585   1.00
C3a      0.82512    0.59417    0.03152   1.00
H1       0.86466    0.59730    0.04142   1.00
C3b      0.75557    0.64070    0.01947   1.00
C4       0.80399    0.64298    0.03320   1.00
O_3      0.91626    0.77514    0.02494   1.00
C5       0.80603    0.44906    0.02319   1.00
H2       0.80874    0.45929    0.03984   1.00
C5       0.84741    0.41428    0.01824   1.00
H2       0.75167    0.41468    0.01892   1.00
H2       0.89536    0.43926    0.02728   1.00
H2       0.86276    0.42486    0.00200   1.00
C5       0.80774    0.33683    0.02228   1.00
H2       0.78821    0.32706    0.03810   1.00
H2       0.84126    0.31439    0.02015   1.00
H2       0.76418    0.30983    0.01148   1.00
C5       0.99539    0.77470    0.00157   1.00
H2       1.02825    0.83119    0.00085   1.00
H2       0.95252    0.76041    -0.00924   1.00
C5       1.03588    0.73937    -0.00441   1.00
H2       1.06248    0.76013    -0.01907   1.00
C5       0.13842    0.22928    0.06716   1.00
H2       0.13669    0.24338    0.08319   1.00
H2       0.16383    0.27804    0.05859   1.00
C5       0.18051    0.19267    0.06568   1.00
H2       0.23613    0.23029    0.06541   1.00
H2       0.16660    0.16120    0.05164   1.00
O_3      -0.15430   0.11904    0.00876   1.00
C4       -0.13623   0.16912    0.04870   1.00
C3c      -0.06614   0.19921    0.05272   1.00
H1       -0.03023   0.24344    0.04416   1.00
C3d      -0.18224   0.11210    0.06023   1.00
C3       -0.04120   0.17241    0.06754   1.00
O2       0.02702    0.20935    0.07233   1.00
C3       -0.15749   0.08452    0.07473   1.00
H1       -0.19455   0.03931    0.08269   1.00
C2       -0.08672   0.11387    0.07883   1.00
C5       -0.21419   0.05515    0.00645   1.00
H2       -0.24768   0.05566    -0.00586   1.00
H2       -0.24432   0.03909    0.02080   1.00
C5       -0.19279   0.00334    0.00101   1.00
H2       -0.15778   0.00420    0.01303   1.00
H2       -0.16331   0.01954    -0.01343   1.00
C5       -0.25503   -0.06834   -0.00108   1.00
H2       -0.29045   -0.06946   -0.01296   1.00
H2       -0.28317   -0.08553   0.01354   1.00
H2       -0.23848   -0.10524   -0.00549   1.00
C5       -0.28351   0.10742    0.06660   1.00
C5       0.06385    0.18646    0.06055   1.00
H2       -0.26334   0.16139    0.06198   1.00
H2       -0.27680   0.10570    0.08332   1.00
H2       0.05862    0.19451    0.04410   1.00
H2       0.04541    0.13094    0.06277   1.00
H2       0.17169    0.15927    0.07915   1.00
H2       -0.38087   0.15131    0.05824   1.00
H2       -0.38650   0.12099    0.08409   1.00
C2       -0.21464   0.24352    0.00229   1.00
C3       -0.20258   0.27193    0.02196   1.00
O2       -0.23100   0.31070    0.02790   1.00
C3       -0.19708   0.19287    -0.00180   1.00
H1       -0.20403   0.17137    -0.01684   1.00
C3a      -0.17528   0.24821    0.03704   1.00
H1       -0.16999   0.26768    0.05231   1.00
C3b      -0.17198   0.16785    0.01340   1.00
C4       -0.16101   0.19539    0.03302   1.00
O_3      -0.25124   0.07752    0.05583   1.00
C5       -0.18163   0.38066    0.02725   1.00
H2       -0.13774   0.39259    0.03748   1.00
C5       -0.21666   0.41991    0.03435   1.00
H2       -0.16195   0.39674    0.01153   1.00
H2       -0.21929   0.41805    0.05121   1.00
H2       -0.27027   0.39174    0.02878   1.00
C5       -0.18042   0.49438    0.02684   1.00
H2       -0.12568   0.52014    0.03116   1.00
H2       -0.20387   0.52277    0.03368   1.00
H2       -0.18497   0.49709    0.01002   1.00
C5       -0.35924   0.06705    0.06160   1.00
H2       -0.38171   0.01661    0.06930   1.00
H2       -0.36474   0.05695    0.04497   1.00
C5       -0.39660   0.10530    0.06789   1.00
H2       -0.45251   0.07158    0.06598   1.00
C5       0.66460    1.32252    0.87587   1.00
H2       0.62711    1.32706    0.88563   1.00
H2       0.64834    1.32292    0.86000   1.00
C5       0.73668    1.38413    0.87964   1.00
H2       0.74422    1.42953    0.87095   1.00
H2       0.77615    1.37128    0.87496   1.00
O_3      0.62031    0.99849    0.86101   1.00
C4       0.52997    1.02825    0.88195   1.00
C3c      0.55065    1.09640    0.87731   1.00
H1       0.54727    1.11046    0.86186   1.00
C3d      0.53387    1.01082    0.90222   1.00
C3       0.57678    1.14745    0.89234   1.00
O2       0.58811    1.21117    0.88716   1.00
C3       0.56108    1.06175    0.91715   1.00
H1       0.56533    1.04636    0.93235   1.00
C2       0.58292    1.13105    0.91268   1.00
C5       0.63900    0.95771    0.87246   1.00
H2       0.62866    0.91052    0.86421   1.00
H2       0.61104    0.94241    0.88720   1.00
C5       0.71506    0.99977    0.87661   1.00
H2       0.72566    1.04784    0.88435   1.00
H2       0.74248    1.01422    0.86180   1.00
C5       0.73932    0.95994    0.88967   1.00
H2       0.72846    0.91165    0.88210   1.00
H2       0.71370    0.94755    0.90473   1.00
H2       0.79528    0.99093    0.89217   1.00
C5       0.44869    0.90507    0.91141   1.00
C5       0.65654    1.25286    0.88092   1.00
H2       0.41761    0.90047    0.89781   1.00
H2       0.43271    0.92642    0.92416   1.00
H2       0.66706    1.23063    0.86722   1.00
H2       0.69387    1.25818    0.89290   1.00
H2       0.74420    1.39940    0.89598   1.00
H2       0.33872    0.77101    0.90084   1.00
H2       0.32867    0.79820    0.92592   1.00
C2       0.45733    0.87215    0.83655   1.00
C3       0.41166    0.88869    0.84610   1.00
O2       0.34222    0.84487    0.84486   1.00
C3       0.52732    0.91049    0.84164   1.00
H1       0.56384    0.90027    0.83423   1.00
C3a      0.43626    0.94125    0.86071   1.00
H1       0.40011    0.95068    0.86872   1.00
C3b      0.55129    0.96124    0.85665   1.00
C4       0.50568    0.97692    0.86635   1.00
O_3      0.51904    0.94553    0.90732   1.00
C5       0.31316    0.86898    0.83046   1.00
H2       0.32234    0.92071    0.83461   1.00
C5       0.23637    0.81849    0.83024   1.00
H2       0.33462    0.87157    0.81505   1.00
H2       0.21285    0.82962    0.84345   1.00
H2       0.22912    0.76664    0.83279   1.00
C5       0.20178    0.82061    0.81032   1.00
H2       0.21405    0.87379    0.80719   1.00
H2       0.14539    0.78755    0.81138   1.00
H2       0.21864    0.80116    0.79725   1.00
C5       0.43505    0.83433    0.91730   1.00
H2       0.45653    0.83725    0.93270   1.00
H2       0.46360    0.81952    0.90664   1.00
C5       0.35850    0.78104    0.91672   1.00
H2       0.34986    0.73192    0.92309   1.00
C5       -0.03554   0.60142    0.96220   1.00
H2       -0.08273   0.60370    0.95944   1.00
H2       0.00746    0.65386    0.95949   1.00
C5       -0.03478   0.57971    0.98441   1.00
H2       -0.01688   0.62406    0.99485   1.00
H2       -0.00043   0.55797    0.98586   1.00
O_3      0.08176    0.47895    0.88437   1.00
C4       -0.02901   0.50225    0.88173   1.00
C3c      -0.02467   0.54066    0.89896   1.00
H1       0.01852    0.59143    0.90080   1.00
C3d      -0.08620   0.43658    0.87948   1.00
C3       -0.07510   0.51411    0.91417   1.00
O2       -0.07170   0.55755    0.92931   1.00
C3       -0.13584   0.40950    0.89478   1.00
H1       -0.17753   0.35800    0.89274   1.00
C2       -0.13187   0.44736    0.91242   1.00
C5       0.06466    0.41261    0.87814   1.00
H2       0.09924    0.41323    0.86601   1.00
H2       0.01122    0.38388    0.87237   1.00
C5       0.07124    0.37576    0.89650   1.00
H2       0.03813    0.37681    0.90884   1.00
H2       0.12491    0.40452    0.90203   1.00
C5       0.05113    0.30208    0.89123   1.00
H2       0.08367    0.30063    0.87883   1.00
H2       -0.00317   0.27266    0.88639   1.00
H2       0.05770    0.27643    0.90471   1.00
C5       -0.12086   0.40728    0.84671   1.00
C5       -0.03556   0.55264    0.94611   1.00
H2       -0.08967   0.46076    0.84131   1.00
H2       -0.17320   0.39733    0.85033   1.00
H2       0.01777    0.56820    0.94161   1.00
H2       -0.05934   0.49961    0.95230   1.00
H2       -0.08711   0.54111    0.98961   1.00
H2       -0.09593   0.42936    0.80366   1.00
H2       -0.18612   0.38676    0.80997   1.00
C2       0.12640    0.57714    0.83609   1.00
C3       0.07327    0.59252    0.83503   1.00
O2       0.06077    0.61635    0.81721   1.00
C3       0.12856    0.53969    0.85298   1.00
H1       0.16955    0.52861    0.85451   1.00
C3a      0.02311    0.56897    0.85038   1.00
H1       -0.01936   0.57781    0.84875   1.00
C3b      0.07741    0.51448    0.86787   1.00
C4       0.02405    0.52891    0.86664   1.00
O_3      -0.09034   0.39477    0.86358   1.00
C5       0.08742    0.68745    0.81837   1.00
H2       0.06398    0.70097    0.83114   1.00
C5       0.07055    0.70960    0.79828   1.00
H2       0.14378    0.71477    0.82054   1.00
H2       0.01647    0.69746    0.79879   1.00
H2       0.07378    0.67726    0.78609   1.00
C5       0.11826    0.78585    0.79361   1.00
H2       0.11850    0.81709    0.80664   1.00
H2       0.10092    0.80127    0.77981   1.00
H2       0.17147    0.79718    0.79049   1.00
C5       -0.12549   0.35942    0.82979   1.00
H2       -0.16580   0.30665    0.83381   1.00
H2       -0.07633   0.35940    0.82919   1.00
C5       -0.14036   0.38069    0.80909   1.00
H2       -0.15043   0.34093    0.79756   1.00
C5       0.42518    0.40388    0.96635   1.00
H2       0.41430    0.35049    0.96500   1.00
H2       0.37508    0.40139    0.96500   1.00
C5       0.45763    0.43295    0.98728   1.00
H2       0.41774    0.41615    0.99925   1.00
H2       0.48659    0.48967    0.98674   1.00
O_3      0.54056    0.60866    0.88023   1.00
C4       0.49761    0.46865    0.88175   1.00
C3c      0.46477    0.44542    0.90053   1.00
H1       0.41838    0.44642    0.90360   1.00
C3d      0.55747    0.46601    0.87794   1.00
C3       0.49151    0.42158    0.91570   1.00
O2       0.45231    0.39201    0.93267   1.00
C3       0.58492    0.44352    0.89315   1.00
H1       0.63222    0.44469    0.88980   1.00
C2       0.55277    0.42055    0.91232   1.00
C5       0.60566    0.64776    0.87137   1.00
H2       0.60526    0.67929    0.85844   1.00
H2       0.62543    0.61446    0.86573   1.00
C5       0.65345    0.69515    0.88761   1.00
H2       0.65238    0.66377    0.90077   1.00
H2       0.63357    0.72858    0.89299   1.00
C5       0.72626    0.73803    0.87942   1.00
H2       0.72764    0.76914    0.86618   1.00
H2       0.74703    0.70480    0.87469   1.00
H2       0.76013    0.77340    0.89137   1.00
C5       0.56943    0.44265    0.84504   1.00
C5       0.47015    0.44149    0.94809   1.00
H2       0.51528    0.42559    0.84140   1.00
H2       0.57341    0.39729    0.84957   1.00
H2       0.46001    0.48252    0.94292   1.00
H2       0.52530    0.46635    0.95233   1.00
H2       0.49264    0.41400    0.99201   1.00
H2       0.53183    0.43246    0.80278   1.00
H2       0.56570    0.37724    0.80945   1.00
C2       0.42310    0.54887    0.83591   1.00
C3       0.39812    0.47800    0.83704   1.00
O2       0.36346    0.43626    0.82087   1.00
C3       0.47023    0.59151    0.85078   1.00
H1       0.48896    0.64575    0.85065   1.00
C3a      0.42178    0.45180    0.85247   1.00
H1       0.40515    0.39796    0.85244   1.00
C3b      0.49530    0.56557    0.86572   1.00
C4       0.47122    0.49525    0.86663   1.00
O_3      0.59450    0.49303    0.86031   1.00
C5       0.29267    0.40106    0.82469   1.00
H2       0.28005    0.36891    0.83862   1.00
C5       0.25815    0.35527    0.80631   1.00
H2       0.27332    0.43733    0.82660   1.00
H2       0.26287    0.30880    0.80771   1.00
H2       0.28783    0.38307    0.79261   1.00
C5       0.18271    0.33558    0.80402   1.00
H2       0.15507    0.31280    0.81841   1.00
H2       0.15789    0.29783    0.79157   1.00
H2       0.17762    0.38083    0.80003   1.00
C5       0.61238    0.47420    0.82612   1.00
H2       0.66378    0.48036    0.82868   1.00
H2       0.61975    0.52635    0.82419   1.00
C5       0.57884    0.43109    0.80704   1.00
H2       0.61462    0.45167    0.79400   1.00
C5       0.64938    0.39751    0.28860   1.00
H2       0.66638    0.36265    0.28258   1.00
H2       0.65294    0.39576    0.30537   1.00
C5       0.69729    0.47066    0.28070   1.00
H2       0.74474    0.49657    0.28994   1.00
H2       0.67099    0.50102    0.28136   1.00
O_3      0.30015    0.27308    0.29616   1.00
C4       0.36177    0.19664    0.28477   1.00
C3c      0.43111    0.23712    0.28969   1.00
H1       0.44617    0.24944    0.30538   1.00
C3d      0.34332    0.18037    0.26426   1.00
C3       0.48185    0.26306    0.27457   1.00
O2       0.54893    0.29518    0.28069   1.00
C3       0.39360    0.20720    0.24913   1.00
H1       0.37678    0.19533    0.23356   1.00
C2       0.46389    0.24883    0.25383   1.00
C5       0.25048    0.26734    0.28211   1.00
H2       0.20012    0.25036    0.28944   1.00
H2       0.24311    0.23045    0.26980   1.00
C5       0.27551    0.33736    0.27286   1.00
H2       0.32671    0.35517    0.26604   1.00
H2       0.28208    0.37362    0.28526   1.00
C5       0.22544    0.33520    0.25681   1.00
H2       0.17408    0.31699    0.26349   1.00
H2       0.22066    0.30082    0.24408   1.00
H2       0.24385    0.38710    0.25054   1.00
C5       0.25142    0.07437    0.25932   1.00
C5       0.57472    0.36623    0.28213   1.00
H2       0.25398    0.05784    0.27502   1.00
H2       0.28115    0.05957    0.24909   1.00
H2       0.54550    0.37710    0.29372   1.00
H2       0.57097    0.38901    0.26746   1.00
H2       0.71377    0.47002    0.26475   1.00
H2       0.13323    -0.04625   0.27471   1.00
H2       0.16900    -0.06308   0.25224   1.00
C2       0.20459    0.12264    0.32984   1.00
C3       0.23731    0.08518    0.32514   1.00
O2       0.20868    0.01784    0.33095   1.00
C3       0.22735    0.18608    0.32008   1.00
H1       0.20456    0.21681    0.32374   1.00
C3a      0.29013    0.11068    0.31060   1.00
H1       0.31199    0.07958    0.30632   1.00
C3b      0.27838    0.21025    0.30516   1.00
C4       0.31014    0.17246    0.30027   1.00
O_3      0.27550    0.14507    0.25847   1.00
C5       0.24251    0.01230    0.34819   1.00
H2       0.29784    0.03260    0.34508   1.00
C5       0.20871    -0.06359   0.35343   1.00
H2       0.23755    0.04062    0.36129   1.00
H2       0.22932    -0.08779   0.34308   1.00
H2       0.15338    -0.08703   0.34989   1.00
C5       0.21913    -0.07645   0.37577   1.00
H2       0.27441    -0.04825   0.37947   1.00
H2       0.19889    -0.13179   0.37856   1.00
H2       0.19122    -0.06015   0.38629   1.00
C5       0.17727    0.03778    0.25249   1.00
H2       0.17583    0.04499    0.23582   1.00
H2       0.15136    0.06306    0.25982   1.00
C5       0.14025    -0.03852   0.25797   1.00
H2       0.08875    -0.06485   0.25094   1.00
C5       0.59685    0.36855    0.28381   1.00
H2       0.57488    0.37767    0.26991   1.00
H2       0.57133    0.37808    0.29676   1.00
C5       0.58127    0.29377    0.28406   1.00
H2       0.52861    0.25897    0.28965   1.00
H2       0.61824    0.28893    0.29405   1.00
O_3      0.91135    0.63004    0.31716   1.00
C4       0.83539    0.63860    0.28465   1.00
C3c      0.77013    0.58087    0.28626   1.00
H1       0.73869    0.57512    0.29928   1.00
C3d      0.87516    0.64560    0.26741   1.00
C3       0.74482    0.52941    0.27135   1.00
O2       0.67761    0.47875    0.27270   1.00
C3       0.85062    0.59383    0.25274   1.00
H1       0.88391    0.60029    0.24015   1.00
C2       0.78504    0.53475    0.25424   1.00
C5       0.97922    0.65055    0.31170   1.00
H2       1.01702    0.69149    0.32181   1.00
H2       0.99006    0.66962    0.29576   1.00
C5       0.98828    0.58866    0.31354   1.00
H2       0.94925    0.54709    0.30388   1.00
H2       0.97796    0.57046    0.32955   1.00
C5       1.06031    0.60595    0.30716   1.00
H2       1.09956    0.64776    0.31666   1.00
H2       1.06981    0.62187    0.29097   1.00
H2       1.06644    0.56051    0.30903   1.00
C5       0.94197    0.75548    0.25683   1.00
C5       0.67272    0.42239    0.28342   1.00
H2       0.91388    0.77402    0.26629   1.00
H2       0.91873    0.74306    0.24138   1.00
H2       0.69237    0.43782    0.29919   1.00
H2       0.70285    0.40123    0.27615   1.00
H2       0.58394    0.27589    0.26845   1.00
H2       1.00573    0.90043    0.26402   1.00
H2       0.99095    0.87864    0.23725   1.00
C2       0.91822    0.79298    0.33056   1.00
C3       0.87724    0.79643    0.31499   1.00
O2       0.87720    0.85640    0.31134   1.00
C3       0.92809    0.73603    0.33109   1.00
H1       0.95772    0.73099    0.34311   1.00
C3a      0.84885    0.74454    0.30018   1.00
H1       0.82085    0.74989    0.28772   1.00
C3b      0.90160    0.68564    0.31598   1.00
C4       0.86175    0.68967    0.30033   1.00
O_3      0.94164    0.69882    0.26585   1.00
C5       0.81809    0.85298    0.31960   1.00
H2       0.77088    0.81002    0.31286   1.00
C5       0.82131    0.92056    0.31463   1.00
H2       0.81628    0.84604    0.33637   1.00
H2       0.80462    0.91857    0.29864   1.00
H2       0.87587    0.96138    0.31532   1.00
C5       0.77782    0.93685    0.32909   1.00
H2       0.72472    0.89320    0.32943   1.00
H2       0.77684    0.98322    0.32399   1.00
H2       0.79928    0.94759    0.34481   1.00
C5       1.01597    0.81212    0.25508   1.00
H2       1.04097    0.79819    0.24293   1.00
H2       1.04239    0.81432    0.26955   1.00
C5       1.02213    0.88176    0.25069   1.00
H2       1.07610    0.92027    0.24742   1.00
C5       0.76033    0.39625    0.28512   1.00
H2       0.79266    0.42067    0.27159   1.00
H2       0.79350    0.42124    0.29847   1.00
C5       0.69913    0.40878    0.28504   1.00
H2       0.71435    0.46036    0.29109   1.00
H2       0.65697    0.36968    0.29450   1.00
O_3      0.71667    0.08298    0.31605   1.00
C4       0.80325    0.16465    0.28466   1.00
C3c      0.80779    0.22852    0.28673   1.00
H1       0.83112    0.25887    0.30013   1.00
C3d      0.77354    0.12634    0.26695   1.00
C3       0.78163    0.25378    0.27181   1.00
O2       0.79532    0.31998    0.27371   1.00
C3       0.74628    0.15077    0.25224   1.00
H1       0.72182    0.11852    0.23926   1.00
C2       0.74977    0.21491    0.25421   1.00
C5       0.67200    0.01523    0.30983   1.00
H2       0.67578    -0.02269   0.31971   1.00
H2       0.68271    0.00684    0.29389   1.00
C5       0.59974    0.00301    0.31111   1.00
H2       0.59647    0.04211    0.30168   1.00
H2       0.58939    0.01089    0.32712   1.00
C5       0.54782    -0.06903   0.30389   1.00
H2       0.55114    -0.10833   0.31314   1.00
H2       0.55665    -0.07616   0.28769   1.00
H2       0.49522    -0.07753   0.30535   1.00
C5       0.82177    0.06425    0.25625   1.00
C5       0.74131    0.32123    0.28409   1.00
H2       0.86704    0.09267    0.26621   1.00
H2       0.83351    0.08919    0.24103   1.00
H2       0.73610    0.30004    0.29969   1.00
H2       0.69112    0.29035    0.27627   1.00
H2       0.68004    0.40705    0.26929   1.00
H2       0.90676    0.00479    0.26360   1.00
H2       0.90197    0.02198    0.23690   1.00
C2       0.87487    0.08170    0.33051   1.00
C3       0.92015    0.12548    0.31553   1.00
O2       0.98186    0.12862    0.31230   1.00
C3       0.80701    0.06902    0.33050   1.00
H1       0.77158    0.03716    0.34208   1.00
C3a      0.89654    0.15385    0.30075   1.00
H1       0.93075    0.18411    0.28870   1.00
C3b      0.78311    0.09555    0.31540   1.00
C4       0.82790    0.13821    0.30033   1.00
O_3      0.76320    0.06102    0.26487   1.00
C5       1.03511    0.18786    0.32133   1.00
H2       1.03808    0.23493    0.31493   1.00
C5       1.10156    0.18817    0.31680   1.00
H2       1.02789    0.18748    0.33807   1.00
H2       1.11762    0.20695    0.30103   1.00
H2       1.08993    0.13420    0.31704   1.00
C5       1.15899    0.23163    0.33195   1.00
H2       1.16620    0.28386    0.33269   1.00
H2       1.20789    0.23529    0.32719   1.00
H2       1.14723    0.20840    0.34744   1.00
C5       0.80759    -0.00858   0.25390   1.00
H2       0.77034    -0.03333   0.24133   1.00
H2       0.78241    -0.03712   0.26803   1.00
C5       0.87321    -0.01126   0.24993   1.00
H2       0.86023    -0.06427   0.24621   1.00
C5       0.84765    0.65414    0.69808   1.00
H2       0.86652    0.61735    0.69796   1.00
H2       0.89384    0.70560    0.69844   1.00
C5       0.80592    0.64514    0.67857   1.00
H2       0.84026    0.67228    0.66557   1.00
H2       0.77085    0.66561    0.68097   1.00
O_3      0.74233    0.71893    0.79047   1.00
C4       0.80301    0.63780    0.78489   1.00
C3c      0.82949    0.65134    0.76510   1.00
H1       0.87014    0.70188    0.76123   1.00
C3d      0.75072    0.57136    0.78970   1.00
C3       0.80353    0.60060    0.74998   1.00
O2       0.83744    0.61526    0.73172   1.00
C3       0.72388    0.52107    0.77458   1.00
H1       0.68216    0.47153    0.77880   1.00
C2       0.74955    0.53410    0.75443   1.00
C5       0.68048    0.68492    0.80138   1.00
H2       0.68056    0.71435    0.81495   1.00
H2       0.67001    0.63365    0.80656   1.00
C5       0.62368    0.67625    0.78725   1.00
H2       0.62481    0.64852    0.77343   1.00
H2       0.63432    0.72775    0.78233   1.00
C5       0.55401    0.63738    0.79772   1.00
H2       0.55267    0.66455    0.81162   1.00
H2       0.54229    0.58509    0.80201   1.00
H2       0.51331    0.63286    0.78731   1.00
C5       0.75578    0.53828    0.82203   1.00
C5       0.80770    0.64062    0.71791   1.00
H2       0.80882    0.58094    0.82425   1.00
H2       0.75777    0.49270    0.81654   1.00
H2       0.81221    0.68889    0.72382   1.00
H2       0.75229    0.60396    0.71529   1.00
H2       0.77555    0.59027    0.67407   1.00
H2       0.80701    0.57057    0.86304   1.00
H2       0.78276    0.48393    0.85574   1.00
C2       0.87447    0.79183    0.83091   1.00
C3       0.90798    0.75422    0.82767   1.00
O2       0.95197    0.75394    0.84209   1.00
C3       0.81954    0.77960    0.81801   1.00
H1       0.79396    0.80877    0.81976   1.00
C3a      0.88508    0.70462    0.81217   1.00
H1       0.90875    0.67357    0.81063   1.00
C3b      0.79551    0.72874    0.80304   1.00
C4       0.82819    0.69066    0.80004   1.00
O_3      0.71941    0.55672    0.80851   1.00
C5       1.02021    0.79774    0.83618   1.00
H2       1.03161    0.78166    0.82137   1.00
C5       1.06553    0.79370    0.85271   1.00
H2       1.03119    0.85135    0.83478   1.00
H2       1.06818    0.74641    0.85032   1.00
H2       1.03930    0.78753    0.86751   1.00
C5       1.13774    0.85675    0.85314   1.00
H2       1.16106    0.86526    0.83782   1.00
H2       1.17082    0.84943    0.86415   1.00
H2       1.13657    0.90340    0.85807   1.00
C5       0.71888    0.52146    0.84234   1.00
H2       0.67047    0.47188    0.84089   1.00
H2       0.70458    0.56096    0.84562   1.00
C5       0.76315    0.51882    0.85965   1.00
H2       0.73232    0.49954    0.87372   1.00
C5       0.59444    0.43421    0.77292   1.00
H2       0.63233    0.41672    0.77286   1.00
H2       0.59430    0.45185    0.78863   1.00
C5       0.61682    0.49376    0.75772   1.00
H2       0.65599    0.54276    0.76460   1.00
H2       0.57204    0.49843    0.75311   1.00
O_3      0.25169    0.18789    0.78233   1.00
C4       0.36211    0.16402    0.78486   1.00
C3c      0.42070    0.22855    0.78672   1.00
H1       0.42733    0.25926    0.80000   1.00
C3d      0.35493    0.12440    0.76757   1.00
C3       0.47098    0.25485    0.77147   1.00
O2       0.53062    0.31453    0.77546   1.00
C3       0.40426    0.15098    0.75217   1.00
H1       0.39538    0.11973    0.73887   1.00
C2       0.46347    0.21645    0.75371   1.00
C5       0.20181    0.14467    0.76822   1.00
H2       0.15005    0.11596    0.77515   1.00
H2       0.21468    0.10703    0.76169   1.00
C5       0.19990    0.18915    0.75128   1.00
H2       0.25207    0.21928    0.74473   1.00
H2       0.18638    0.22609    0.75795   1.00
C5       0.14845    0.14579    0.73484   1.00
H2       0.09632    0.11519    0.74129   1.00
H2       0.16321    0.11053    0.72768   1.00
H2       0.14668    0.17927    0.72281   1.00
C5       0.30175    0.01001    0.77368   1.00
C5       0.52584    0.37073    0.76818   1.00
H2       0.30780    0.01746    0.79038   1.00
H2       0.34592    0.00660    0.76758   1.00
H2       0.48371    0.37348    0.77608   1.00
H2       0.51512    0.36734    0.75152   1.00
H2       0.64079    0.48597    0.74392   1.00
H2       0.21928    -0.10618   0.79927   1.00
H2       0.27504    -0.11991   0.78251   1.00
C2       0.20384    0.08445    0.82963   1.00
C3       0.26056    0.07494    0.83178   1.00
O2       0.25813    0.02669    0.84506   1.00
C3       0.20260    0.12341    0.81302   1.00
H1       0.16077    0.13311    0.81123   1.00
C3a      0.31326    0.10265    0.81720   1.00
H1       0.35440    0.09163    0.81843   1.00
C3b      0.25401    0.14904    0.79820   1.00
C4       0.30984    0.13865    0.80019   1.00
O_3      0.29586    0.06282    0.76429   1.00
C5       0.29429    0.05833    0.86297   1.00
H2       0.34889    0.09578    0.85965   1.00
C5       0.29018    0.00185    0.87669   1.00
H2       0.27116    0.08537    0.87089   1.00
H2       0.32843    -0.01189   0.87137   1.00
H2       0.23909    -0.04409   0.87435   1.00
C5       0.30150    0.02217    0.89928   1.00
H2       0.35022    0.07102    0.90111   1.00
H2       0.30386    -0.01775   0.90853   1.00
H2       0.25860    0.02770    0.90553   1.00
C5       0.23636    -0.05666   0.76936   1.00
H2       0.23631    -0.06992   0.75309   1.00
H2       0.19244    -0.04806   0.77155   1.00
C5       0.22869    -0.11481   0.78321   1.00
H2       0.18441    -0.16394   0.77825   1.00
C5       0.57602    0.18768    0.77800   1.00
H2       0.59876    0.24376    0.77657   1.00
H2       0.56237    0.17576    0.79426   1.00
C5       0.51146    0.15136    0.76458   1.00
H2       0.46676    0.14903    0.77239   1.00
H2       0.49992    0.09857    0.76104   1.00
O_3      0.79737    0.05904    0.78535   1.00
C4       0.83606    0.19808    0.78484   1.00
C3c      0.77578    0.20026    0.78783   1.00
H1       0.74845    0.18259    0.80201   1.00
C3d      0.87141    0.22225    0.76637   1.00
C3       0.74931    0.22416    0.77261   1.00
O2       0.69490    0.23257    0.77752   1.00
C3       0.84451    0.24486    0.75103   1.00
H1       0.87212    0.26064    0.73686   1.00
C2       0.78321    0.24671    0.75373   1.00
C5       0.83253    0.04260    0.77077   1.00
H2       0.85876    0.01692    0.77765   1.00
H2       0.87147    0.08919    0.76267   1.00
C5       0.78040    -0.00577   0.75554   1.00
H2       0.75284    0.01915    0.74907   1.00
H2       0.74215    -0.05234   0.76376   1.00
C5       0.81480    -0.02440   0.73866   1.00
H2       0.84281    -0.04887   0.74502   1.00
H2       0.85127    0.02177    0.72999   1.00
H2       0.77574    -0.06095   0.72792   1.00
C5       0.98709    0.27447    0.76942   1.00
C5       0.63315    0.17316    0.77238   1.00
H2       0.98516    0.27885    0.78618   1.00
H2       0.99392    0.32228    0.76236   1.00
H2       0.62780    0.12863    0.78117   1.00
H2       0.63029    0.16012    0.75591   1.00
H2       0.51814    0.17973    0.75009   1.00
H2       1.10729    0.30334    0.79236   1.00
H2       1.12298    0.36976    0.77409   1.00
C2       0.91495    0.11885    0.82965   1.00
C3       0.93220    0.18797    0.83033   1.00
O2       0.98663    0.23419    0.84187   1.00
C3       0.86880    0.07643    0.81455   1.00
H1       0.85320    0.02290    0.81395   1.00
C3a      0.90476    0.21332    0.81578   1.00
H1       0.92148    0.26718    0.81579   1.00
C3b      0.84331    0.10228    0.79971   1.00
C4       0.86132    0.17123    0.80021   1.00
O_3      0.92811    0.21642    0.76208   1.00
C5       0.96321    0.24809    0.86009   1.00
H2       0.92926    0.26971    0.85705   1.00
C5       1.02622    0.30032    0.87181   1.00
H2       0.93461    0.20098    0.86939   1.00
H2       1.04345    0.35175    0.86527   1.00
H2       1.06774    0.28862    0.86885   1.00
C5       1.01323    0.30001    0.89478   1.00
H2       0.96824    0.30637    0.89738   1.00
H2       1.05823    0.34233    0.90250   1.00
H2       1.00437    0.25160    0.90203   1.00
C5       1.04806    0.26641    0.76403   1.00
H2       1.05692    0.27388    0.74738   1.00
H2       1.03461    0.21290    0.76738   1.00
C5       1.11246    0.31650    0.77589   1.00
H2       1.15729    0.31415    0.77007   1.00
C5       -0.03894   0.35517    0.46120   1.00
H2       -0.04864   0.39230    0.46942   1.00
H2       0.01688    0.37535    0.46225   1.00
C5       -0.07844   0.28463    0.47163   1.00
H2       -0.05013   0.28224    0.48512   1.00
H2       -0.08608   0.24373    0.46078   1.00
O_3      -0.01533   0.37852    0.35594   1.00
C4       -0.02845   0.47002    0.38189   1.00
C3c      -0.01588   0.45497    0.40154   1.00
H1       0.03398    0.46280    0.40533   1.00
C3d      -0.09349   0.46037    0.37735   1.00
C3       -0.06730   0.42881    0.41646   1.00
O2       -0.04899   0.42320    0.43596   1.00
C3       -0.14516   0.43311    0.39205   1.00
H1       -0.19491   0.42432    0.38765   1.00
C2       -0.13354   0.41691    0.41193   1.00
C5       -0.06455   0.35355    0.34031   1.00
H2       -0.04091   0.36225    0.32497   1.00
H2       -0.09662   0.37820    0.34079   1.00
C5       -0.10980   0.27727    0.34350   1.00
H2       -0.13192   0.26848    0.35905   1.00
H2       -0.07737   0.25311    0.34280   1.00
C5       -0.16652   0.24628    0.32751   1.00
H2       -0.14479   0.25528    0.31194   1.00
H2       -0.20036   0.26867    0.32866   1.00
H2       -0.19814   0.19027    0.32981   1.00
C5       -0.09210   0.53827    0.35513   1.00
C5       -0.05930   0.35695    0.43916   1.00
H2       -0.03626   0.57292    0.35695   1.00
H2       -0.11935   0.55384    0.36610   1.00
H2       -0.02656   0.34717    0.42863   1.00
H2       -0.11337   0.31623    0.43648   1.00
H2       -0.12916   0.27464    0.47730   1.00
H2       -0.02276   0.64373    0.32508   1.00
H2       -0.08918   0.65104    0.33836   1.00
C2       0.12342    0.54236    0.33522   1.00
C3       0.12012    0.58896    0.34875   1.00
O2       0.15308    0.65764    0.34424   1.00
C3       0.07792    0.47187    0.33815   1.00
H1       0.08032    0.43481    0.32838   1.00
C3a      0.07092    0.56459    0.36438   1.00
H1       0.06647    0.60109    0.37388   1.00
C3b      0.02763    0.44793    0.35330   1.00
C4       0.02371    0.49436    0.36654   1.00
O_3      -0.10999   0.46949    0.35783   1.00
C5       0.21411    0.69263    0.35546   1.00
H2       0.20396    0.68635    0.37212   1.00
C5       0.24684    0.76818    0.34990   1.00
H2       0.24977    0.67384    0.35157   1.00
H2       0.22064    0.79065    0.35857   1.00
H2       0.23592    0.77106    0.33356   1.00
C5       0.32429    0.80833    0.35392   1.00
H2       0.33455    0.80047    0.36989   1.00
H2       0.34517    0.86386    0.35132   1.00
H2       0.35232    0.79206    0.34344   1.00
C5       -0.11229   0.54557    0.33365   1.00
H2       -0.16891   0.52034    0.33290   1.00
H2       -0.09676   0.51707    0.32321   1.00
C5       -0.07898   0.62072    0.32706   1.00
H2       -0.10029   0.62445    0.31224   1.00
C5       0.39081    1.04174    0.46038   1.00
H2       0.43677    1.05042    0.46890   1.00
H2       0.35418    0.98613    0.46137   1.00
C5       0.36050    1.08250    0.47043   1.00
H2       0.32865    1.05463    0.48379   1.00
H2       0.32852    1.09104    0.45931   1.00
O_3      0.39646    1.01769    0.35523   1.00
C4       0.49846    1.02843    0.38189   1.00
C3c      0.46967    1.01642    0.40138   1.00
H1       0.42671    0.96700    0.40504   1.00
C3d      0.55504    1.09289    0.37752   1.00
C3       0.49496    1.06786    0.41630   1.00
O2       0.46969    1.04995    0.43569   1.00
C3       0.57951    1.14461    0.39221   1.00
H1       0.62144    1.19394    0.38793   1.00
C2       0.55052    1.13356    0.41192   1.00
C5       0.42259    1.06689    0.33960   1.00
H2       0.40820    1.04330    0.32424   1.00
H2       0.47935    1.09795    0.34038   1.00
C5       0.39287    1.11345    0.34239   1.00
H2       0.40562    1.13554    0.35795   1.00
H2       0.33625    1.08202    0.34140   1.00
C5       0.42066    1.17020    0.32639   1.00
H2       0.40853    1.14850    0.31081   1.00
H2       0.47694    1.20306    0.32782   1.00
H2       0.39723    1.20280    0.32839   1.00
C5       0.63192    1.08957    0.35588   1.00
C5       0.41453    1.06177    0.43844   1.00
H2       0.60950    1.03358    0.35775   1.00
H2       0.67419    1.11611    0.36706   1.00
H2       0.37239    1.02966    0.42771   1.00
H2       0.42921    1.11616    0.43565   1.00
H2       0.40161    1.13284    0.47622   1.00
H2       0.66771    1.01845    0.32636   1.00
H2       0.74133    1.08388    0.33993   1.00
C2       0.41908    0.87661    0.33521   1.00
C3       0.46759    0.87875    0.34909   1.00
O2       0.50232    0.84451    0.34497   1.00
C3       0.39535    0.92329    0.33779   1.00
H1       0.35694    0.92181    0.32774   1.00
C3a      0.49234    0.92795    0.36471   1.00
H1       0.53230    0.93146    0.37450   1.00
C3b      0.42167    0.97355    0.35294   1.00
C4       0.47066    0.97630    0.36653   1.00
O_3      0.58195    1.10893    0.35814   1.00
C5       0.47440    0.78339    0.35622   1.00
H2       0.47745    0.79359    0.37287   1.00
C5       0.51621    0.74920    0.35109   1.00
H2       0.42000    0.74864    0.35206   1.00
H2       0.56437    0.77453    0.36003   1.00
H2       0.53111    0.75989    0.33482   1.00
C5       0.47722    0.67174    0.35513   1.00
H2       0.45810    0.66183    0.37099   1.00
H2       0.51107    0.64975    0.35286   1.00
H2       0.43344    0.64445    0.34442   1.00
C5       0.66088    1.10929    0.33453   1.00
H2       0.69332    1.16582    0.33380   1.00
H2       0.61767    1.09464    0.32382   1.00
C5       0.70177    1.07454    0.32837   1.00
H2       0.72793    1.09546    0.31367   1.00
C5       0.65071    0.60907    0.46041   1.00
H2       0.61343    0.56307    0.46892   1.00
H2       0.63168    0.64566    0.46141   1.00
C5       0.72176    0.63940    0.47048   1.00
H2       0.72567    0.67121    0.48385   1.00
H2       0.76229    0.67143    0.45937   1.00
O_3      0.62125    0.60364    0.35526   1.00
C4       0.52998    0.50154    0.38189   1.00
C3c      0.54669    0.53028    0.40139   1.00
H1       0.54018    0.57321    0.40506   1.00
C3d      0.53793    0.44501    0.37751   1.00
C3       0.57284    0.50499    0.41630   1.00
O2       0.58013    0.53021    0.43570   1.00
C3       0.56518    0.42054    0.39221   1.00
H1       0.57263    0.37864    0.38792   1.00
C2       0.58305    0.44948    0.41193   1.00
C5       0.64439    0.57758    0.33963   1.00
H2       0.63522    0.59200    0.32427   1.00
H2       0.61873    0.52082    0.34040   1.00
C5       0.72068    0.60735    0.34244   1.00
H2       0.72999    0.59458    0.35799   1.00
H2       0.74583    0.66398    0.34145   1.00
C5       0.74971    0.57964    0.32643   1.00
H2       0.74017    0.59180    0.31085   1.00
H2       0.72633    0.52337    0.32786   1.00
H2       0.80575    0.60311    0.32845   1.00
C5       0.45781    0.36814    0.35585   1.00
C5       0.64709    0.58541    0.43846   1.00
H2       0.42420    0.39051    0.35772   1.00
H2       0.44209    0.32585    0.36702   1.00
H2       0.65711    0.62756    0.42775   1.00
H2       0.68684    0.57078    0.43568   1.00
H2       0.73102    0.59831    0.47626   1.00
H2       0.35096    0.33233    0.32631   1.00
H2       0.34281    0.25871    0.33987   1.00
C2       0.45755    0.58093    0.33521   1.00
C3       0.41117    0.53237    0.34908   1.00
O2       0.34220    0.49760    0.34494   1.00
C3       0.52795    0.60470    0.33780   1.00
H1       0.56490    0.64316    0.32777   1.00
C3a      0.43561    0.50760    0.36470   1.00
H1       0.39916    0.46761    0.37448   1.00
C3b      0.55190    0.57838    0.35296   1.00
C4       0.50565    0.52934    0.36654   1.00
O_3      0.52712    0.41814    0.35813   1.00
C5       0.30894    0.52544    0.35619   1.00
H2       0.31606    0.52236    0.37284   1.00
C5       0.23295    0.48359    0.35105   1.00
H2       0.32855    0.57984    0.35204   1.00
H2       0.21014    0.43541    0.35997   1.00
H2       0.22879    0.46873    0.33478   1.00
C5       0.19442    0.52252    0.35508   1.00
H2       0.20358    0.54160    0.37095   1.00
H2       0.13859    0.48863    0.35280   1.00
H2       0.21090    0.56632    0.34438   1.00
C5       0.44865    0.33923    0.33450   1.00
H2       0.47279    0.30683    0.33377   1.00
H2       0.47721    0.38248    0.32380   1.00
C5       0.37302    0.29830    0.32832   1.00
H2       0.36785    0.27219    0.31361   1.00
C5       0.32191    0.37714    0.29312   1.00
H2       0.36905    0.42610    0.28981   1.00
H2       0.33426    0.33648    0.28972   1.00
C5       0.30300    0.37496    0.31577   1.00
H2       0.33360    0.35979    0.32540   1.00
H2       0.24786    0.33784    0.31806   1.00
O_3      0.06797    0.24608    0.21938   1.00
C4       0.19789    0.36237    0.21506   1.00
C3c      0.23668    0.36086    0.23146   1.00
H1       0.24798    0.31991    0.23264   1.00
C3d      0.18455    0.41670    0.21366   1.00
C3       0.26058    0.41123    0.24669   1.00
O2       0.30506    0.41103    0.26088   1.00
C3       0.20718    0.46621    0.22900   1.00
H1       0.19365    0.50556    0.22765   1.00
C2       0.24583    0.46505    0.24581   1.00
C5       0.01470    0.25884    0.21445   1.00
H2       -0.02019   0.22300    0.20269   1.00
H2       0.03524    0.31197    0.20875   1.00
C5       -0.02617   0.24950    0.23365   1.00
H2       0.00906    0.28394    0.24558   1.00
H2       -0.04696   0.19612    0.23909   1.00
C5       -0.08395   0.26485    0.22979   1.00
H2       -0.11906   0.23096    0.21779   1.00
H2       -0.06312   0.31883    0.22503   1.00
H2       -0.11417   0.25629    0.24388   1.00
C5       0.18133    0.45012    0.18123   1.00
C5       0.26850    0.37344    0.27814   1.00
H2       0.20558    0.42172    0.17500   1.00
H2       0.22200    0.50357    0.18451   1.00
H2       0.23250    0.31936    0.27386   1.00
H2       0.23775    0.39420    0.28522   1.00
H2       0.31439    0.42633    0.32126   1.00
H2       0.17198    0.42556    0.13805   1.00
H2       0.21579    0.51580    0.14433   1.00
C2       0.11729    0.20665    0.16952   1.00
C3       0.18399    0.26275    0.16756   1.00
O2       0.21719    0.27726    0.14912   1.00
C3       0.07976    0.20182    0.18722   1.00
H1       0.02925    0.15861    0.18942   1.00
C3a      0.21075    0.31306    0.18286   1.00
H1       0.26036    0.35763    0.18059   1.00
C3b      0.10568    0.25303    0.20209   1.00
C4       0.17159    0.30930    0.19998   1.00
O_3      0.14233    0.41777    0.19867   1.00
C5       0.26524    0.25492    0.14899   1.00
H2       0.30415    0.28028    0.16120   1.00
C5       0.30048    0.27382    0.12828   1.00
H2       0.23975    0.19863    0.15115   1.00
H2       0.33997    0.32889    0.12849   1.00
H2       0.26166    0.26799    0.11686   1.00
C5       0.33251    0.23001    0.12244   1.00
H2       0.36703    0.23217    0.13476   1.00
H2       0.36245    0.24895    0.10816   1.00
H2       0.29252    0.17576    0.11965   1.00
C5       0.13312    0.45124    0.16535   1.00
H2       0.11812    0.48911    0.17009   1.00
H2       0.08579    0.40037    0.16527   1.00
C5       0.16543    0.46800    0.14406   1.00
H2       0.13183    0.47540    0.13333   1.00
C5       0.38390    0.57965    0.22069   1.00
H2       0.39608    0.56509    0.23553   1.00
H2       0.39768    0.55328    0.20900   1.00
C5       0.30675    0.55516    0.21971   1.00
H2       0.27695    0.50017    0.21560   1.00
H2       0.29704    0.58537    0.20824   1.00
O_3      0.62045    0.89394    0.17993   1.00
C4       0.63864    0.83550    0.21536   1.00
C3c      0.58610    0.76710    0.21529   1.00
H1       0.58447    0.73319    0.20348   1.00
C3d      0.64039    0.87860    0.23105   1.00
C3       0.53453    0.74162    0.23016   1.00
O2       0.48972    0.67245    0.23055   1.00
C3       0.58839    0.85372    0.24566   1.00
H1       0.59053    0.88928    0.25697   1.00
C2       0.53447    0.78487    0.24568   1.00
C5       0.63313    0.96098    0.18305   1.00
H2       0.67179    0.99807    0.17226   1.00
H2       0.65149    0.97863    0.19881   1.00
C5       0.56645    0.96041    0.17975   1.00
H2       0.52729    0.92194    0.19013   1.00
H2       0.54893    0.94333    0.16392   1.00
C5       0.57514    1.03114    0.18357   1.00
H2       0.61452    1.06989    0.17334   1.00
H2       0.59033    1.04721    0.19957   1.00
H2       0.52626    1.03007    0.18064   1.00
C5       0.74772    0.95833    0.24092   1.00
C5       0.43096    0.65693    0.21907   1.00
H2       0.77128    0.93192    0.23296   1.00
H2       0.73721    0.94019    0.25696   1.00
H2       0.44513    0.67207    0.20291   1.00
H2       0.40441    0.68417    0.22472   1.00
H2       0.28706    0.56020    0.23479   1.00
H2       0.89305    1.03428    0.23389   1.00
H2       0.87122    1.02629    0.26067   1.00
C2       0.79247    0.91791    0.16928   1.00
C3       0.80109    0.88560    0.18642   1.00
O2       0.86452    0.89481    0.19114   1.00
C3       0.73087    0.91917    0.16734   1.00
H1       0.72197    0.94195    0.15415   1.00
C3a      0.74947    0.85720    0.20132   1.00
H1       0.75849    0.83611    0.21490   1.00
C3b      0.68059    0.89282    0.18249   1.00
C4       0.68968    0.86165    0.19967   1.00
O_3      0.68799    0.94751    0.23095   1.00
C5       0.86886    0.83725    0.18519   1.00
H2       0.82938    0.79012    0.19297   1.00
C5       0.93988    0.85089    0.19123   1.00
H2       0.86219    0.82928    0.16848   1.00
H2       0.93955    0.84037    0.20774   1.00
H2       0.97598    0.90643    0.18914   1.00
C5       0.96322    0.80839    0.17886   1.00
H2       0.92397    0.75349    0.17983   1.00
H2       1.01233    0.81537    0.18481   1.00
H2       0.97219    0.82458    0.16260   1.00
C5       0.79795    1.03469    0.24077   1.00
H2       0.77960    1.05974    0.25161   1.00
H2       0.79719    1.05470    0.22539   1.00
C5       0.87079    1.05114    0.24615   1.00
H2       0.90440    1.10710    0.24797   1.00
C5       0.39600    0.75995    0.21484   1.00
H2       0.42051    0.79232    0.22836   1.00
H2       0.42098    0.79305    0.20148   1.00
C5       0.40844    0.69868    0.21493   1.00
H2       0.45997    0.71381    0.20886   1.00
H2       0.36926    0.65652    0.20549   1.00
O_3      0.08279    0.71661    0.18398   1.00
C4       0.16466    0.80325    0.21534   1.00
C3c      0.22847    0.80769    0.21325   1.00
H1       0.25878    0.83094    0.19984   1.00
C3d      0.12639    0.77365    0.23307   1.00
C3       0.25373    0.78153    0.22817   1.00
O2       0.31989    0.79512    0.22626   1.00
C3       0.15082    0.74639    0.24777   1.00
H1       0.11860    0.72200    0.26077   1.00
C2       0.21491    0.74978    0.24579   1.00
C5       0.01505    0.67203    0.19023   1.00
H2       -0.02288   0.67583    0.18036   1.00
H2       0.00675    0.68283    0.20617   1.00
C5       0.00272    0.59973    0.18897   1.00
H2       0.04182    0.59644    0.19839   1.00
H2       0.01052    0.58930    0.17296   1.00
C5       -0.06931   0.54791    0.19622   1.00
H2       -0.10861   0.55125    0.18697   1.00
H2       -0.07637   0.55682    0.21242   1.00
H2       -0.07789   0.49527    0.19477   1.00
C5       0.06446    0.82205    0.24377   1.00
C5       0.32102    0.74103    0.21589   1.00
H2       0.09289    0.86727    0.23379   1.00
H2       0.08946    0.83382    0.25898   1.00
H2       0.29978    0.73579    0.20030   1.00
H2       0.29012    0.69088    0.22373   1.00
H2       0.40674    0.67964    0.23069   1.00
H2       0.00515    0.90716    0.23641   1.00
H2       0.02242    0.90245    0.26311   1.00
C2       0.08170    0.87487    0.16949   1.00
C3       0.12557    0.92018    0.18445   1.00
O2       0.12881    0.98194    0.18767   1.00
C3       0.06893    0.80698    0.16952   1.00
H1       0.03699    0.77153    0.15796   1.00
C3a      0.15394    0.89656    0.19924   1.00
H1       0.18427    0.93080    0.21126   1.00
C3b      0.09546    0.78308    0.18462   1.00
C4       0.13821    0.82789    0.19967   1.00
O_3      0.06111    0.76340    0.23517   1.00
C5       0.18806    1.03510    0.17861   1.00
H2       0.23511    1.03803    0.18500   1.00
C5       0.18848    1.10162    0.18313   1.00
H2       0.18760    1.02782    0.16188   1.00
H2       0.20733    1.11774    0.19889   1.00
H2       0.13454    1.09007    0.18290   1.00
C5       0.23194    1.15898    0.16795   1.00
H2       0.28414    1.16611    0.16720   1.00
H2       0.23568    1.20793    0.17270   1.00
H2       0.20865    1.14719    0.15247   1.00
C5       -0.00833   0.80797    0.24613   1.00
H2       -0.03306   0.77078    0.25873   1.00
H2       -0.03693   0.78276    0.23202   1.00
C5       -0.01088   0.87366    0.25010   1.00
H2       -0.06386   0.86077    0.25383   1.00
C5       1.01992    0.59110    0.53326   1.00
H2       1.06180    0.64487    0.53441   1.00
H2       0.97181    0.59271    0.53446   1.00
C5       1.02391    0.56136    0.51251   1.00
H2       1.00026    0.57693    0.50038   1.00
H2       0.99699    0.50469    0.51330   1.00
O_3      0.93369    0.39093    0.62031   1.00
C4       1.02893    0.53135    0.61825   1.00
C3c      1.01878    0.55322    0.59931   1.00
H1       0.97096    0.55116    0.59611   1.00
C3d      1.09199    0.53539    0.62222   1.00
C3       1.06938    0.57707    0.58415   1.00
O2       1.05908    0.60531    0.56697   1.00
C3       1.14197    0.55788    0.60702   1.00
H1       1.18858    0.55780    0.61050   1.00
C2       1.13226    0.57948    0.58770   1.00
C5       0.96070    0.35317    0.62948   1.00
H2       0.92909    0.32198    0.64250   1.00
H2       1.01364    0.38747    0.63507   1.00
C5       0.96204    0.30546    0.61351   1.00
H2       0.99203    0.33647    0.60026   1.00
H2       0.90887    0.27105    0.60818   1.00
C5       0.99311    0.26401    0.62205   1.00
H2       0.96369    0.23329    0.63538   1.00
H2       1.04698    0.29821    0.62673   1.00
H2       0.99227    0.22837    0.61030   1.00
C5       1.12720    0.56085    0.65508   1.00
C5       1.02810    0.55493    0.55176   1.00
H2       1.08942    0.57719    0.65851   1.00
H2       1.17613    0.60650    0.65042   1.00
H2       0.97724    0.51357    0.55702   1.00
H2       1.05917    0.53070    0.54775   1.00
H2       1.07802    0.58094    0.50782   1.00
H2       1.09933    0.57250    0.69719   1.00
H2       1.18820    0.62858    0.69045   1.00
C2       0.87429    0.45118    0.66411   1.00
C3       0.91924    0.52218    0.66270   1.00
O2       0.92557    0.56445    0.67864   1.00
C3       0.87966    0.40832    0.64950   1.00
H1       0.84487    0.35394    0.64985   1.00
C3a      0.96906    0.54833    0.64726   1.00
H1       1.00557    0.60237    0.64708   1.00
C3b      0.93065    0.43426    0.63456   1.00
C4       0.97597    0.50474    0.63337   1.00
O_3      1.10263    0.50972    0.64003   1.00
C5       0.88895    0.59841    0.67452   1.00
H2       0.90803    0.62992    0.66045   1.00
C5       0.89943    0.64487    0.69265   1.00
H2       0.83350    0.56131    0.67266   1.00
H2       0.95020    0.69181    0.69113   1.00
H2       0.90187    0.61808    0.70652   1.00
C5       0.84275    0.66337    0.69467   1.00
H2       0.83740    0.68512    0.68013   1.00
H2       0.85507    0.70162    0.70693   1.00
H2       0.79281    0.61779    0.69878   1.00
C5       1.13933    0.53078    0.67421   1.00
H2       1.18513    0.52545    0.67182   1.00
H2       1.09515    0.47838    0.67632   1.00
C5       1.14815    0.57460    0.69306   1.00
H2       1.16390    0.55517    0.70626   1.00
C5       0.57575    -0.02164   0.53376   1.00
H2       0.58636    -0.06433   0.53515   1.00
H2       0.62594    0.02582    0.53514   1.00
C5       0.54363    -0.02488   0.51277   1.00
H2       0.58368    -0.00194   0.50085   1.00
H2       0.51487    0.00309    0.51325   1.00
O_3      0.46002    0.06857    0.61963   1.00
C4       0.50239    -0.02895   0.61825   1.00
C3c      0.53542    -0.01949   0.59951   1.00
H1       0.58198    0.02778    0.59648   1.00
C3d      0.44232    -0.09130   0.62202   1.00
C3       0.50870    -0.07006   0.58435   1.00
O2       0.54805    -0.06062   0.56742   1.00
C3       0.41488    -0.14124   0.60680   1.00
H1       0.36742    -0.18725   0.61012   1.00
C2       0.44723    -0.13221   0.58768   1.00
C5       0.39484    0.04284    0.62841   1.00
H2       0.39523    0.07484    0.64132   1.00
H2       0.37478    -0.01028   0.63406   1.00
C5       0.34737    0.04267    0.61210   1.00
H2       0.34845    0.01227    0.59896   1.00
H2       0.36754    0.09601    0.60671   1.00
C5       0.27449    0.01303    0.62021   1.00
H2       0.27310    0.04285    0.63342   1.00
H2       0.25344    -0.04101   0.62494   1.00
H2       0.24087    0.01471    0.60821   1.00
C5       0.42979    -0.12665   0.65493   1.00
C5       0.53062    -0.02880   0.55195   1.00
H2       0.48394    -0.08974   0.65862   1.00
H2       0.42563    -0.17610   0.65043   1.00
H2       0.54092    0.02244    0.55710   1.00
H2       0.47551    -0.05889   0.54765   1.00
H2       0.50849    -0.07881   0.50803   1.00
H2       0.46690    -0.09935   0.69722   1.00
H2       0.43275    -0.18850   0.69057   1.00
C2       0.57691    0.12580    0.66409   1.00
C3       0.60160    0.07967    0.66303   1.00
O2       0.63594    0.07240    0.67925   1.00
C3       0.53006    0.12154    0.64914   1.00
H1       0.51155    0.15723    0.64922   1.00
C3a      0.57795    0.02980    0.64760   1.00
H1       0.59435    -0.00758   0.64769   1.00
C3b      0.50499    0.07052    0.63421   1.00
C4       0.52878    0.02404    0.63337   1.00
O_3      0.40511    -0.10115   0.63960   1.00
C5       0.70678    0.10772    0.67552   1.00
H2       0.71944    0.08808    0.66162   1.00
C5       0.74092    0.09626    0.69395   1.00
H2       0.72638    0.16338    0.67359   1.00
H2       0.73597    0.04496    0.69259   1.00
H2       0.71113    0.09452    0.70761   1.00
C5       0.81642    0.15177    0.69631   1.00
H2       0.84419    0.15649    0.68196   1.00
H2       0.84095    0.13868    0.70881   1.00
H2       0.82170    0.20221    0.70028   1.00
C5       0.38665    -0.13786   0.67379   1.00
H2       0.33518    -0.18295   0.67119   1.00
H2       0.37950    -0.09293   0.67568   1.00
C5       0.41982    -0.14762   0.69293   1.00
H2       0.38389    -0.16267   0.70592   1.00
C5       0.40284    0.42443    0.53374   1.00
H2       0.34952    0.41376    0.53512   1.00
H2       0.40016    0.37425    0.53512   1.00
C5       0.43176    0.45661    0.51276   1.00
H2       0.41471    0.41659    0.50083   1.00
H2       0.48849    0.48541    0.51325   1.00
O_3      0.60856    0.54009    0.61965   1.00
C4       0.46866    0.49761    0.61825   1.00
C3c      0.44514    0.46461    0.59950   1.00
H1       0.44591    0.41809    0.59646   1.00
C3d      0.46630    0.55764    0.62202   1.00
C3       0.42130    0.49134    0.58434   1.00
O2       0.39145    0.45202    0.56741   1.00
C3       0.44381    0.58509    0.60681   1.00
H1       0.44520    0.63251    0.61013   1.00
C2       0.42055    0.55277    0.58768   1.00
C5       0.64795    0.60525    0.62846   1.00
H2       0.67954    0.60486    0.64137   1.00
H2       0.61485    0.62526    0.63410   1.00
C5       0.69526    0.65279    0.61215   1.00
H2       0.66380    0.65170    0.59901   1.00
H2       0.72849    0.63267    0.60676   1.00
C5       0.73843    0.72565    0.62028   1.00
H2       0.76963    0.72704    0.63349   1.00
H2       0.70540    0.74665    0.62501   1.00
H2       0.77375    0.75932    0.60829   1.00
C5       0.44338    0.57007    0.65494   1.00
C5       0.44075    0.46953    0.55195   1.00
H2       0.42618    0.51591    0.65862   1.00
H2       0.39808    0.57419    0.65043   1.00
H2       0.48170    0.45925    0.55710   1.00
H2       0.46574    0.52465    0.54766   1.00
H2       0.41294    0.49173    0.50802   1.00
H2       0.43350    0.53287    0.69722   1.00
H2       0.37846    0.56696    0.69056   1.00
C2       0.54888    0.42310    0.66409   1.00
C3       0.47805    0.39835    0.66302   1.00
O2       0.43642    0.36395    0.67923   1.00
C3       0.59147    0.46999    0.64916   1.00
H1       0.64568    0.48854    0.64924   1.00
C3a      0.45183    0.42200    0.64759   1.00
H1       0.39804    0.40555    0.64766   1.00
C3b      0.56553    0.49506    0.63422   1.00
C4       0.49525    0.47122    0.63337   1.00
O_3      0.49360    0.59482    0.63961   1.00
C5       0.40095    0.29312    0.67548   1.00
H2       0.36868    0.28047    0.66158   1.00
C5       0.35531    0.25890    0.69390   1.00
H2       0.43706    0.27356    0.67355   1.00
H2       0.30895    0.26381    0.69253   1.00
H2       0.38332    0.28867    0.70757   1.00
C5       0.33538    0.18341    0.69625   1.00
H2       0.31238    0.15567    0.68189   1.00
H2       0.29773    0.15883    0.70874   1.00
H2       0.38056    0.17817    0.70022   1.00
C5       0.47524    0.61317    0.67381   1.00
H2       0.48157    0.66462    0.67122   1.00
H2       0.52733    0.62036    0.67570   1.00
C5       0.43228    0.57993    0.69293   1.00
H2       0.45310    0.61583    0.70594   1.00
C5       0.29347    -0.32105   0.12354   1.00
H2       0.25504    -0.32294   0.11270   1.00
H2       0.27376    -0.32019   0.13890   1.00
C5       0.30008    -0.38541   0.12088   1.00
H2       0.25849    -0.42963   0.12909   1.00
H2       0.35016    -0.37570   0.12683   1.00
O_3      0.58152    -0.00556   0.14186   1.00
C4       0.46892    -0.02821   0.11803   1.00
C3c      0.41745    -0.09528   0.12224   1.00
H1       0.39613    -0.10848   0.13734   1.00
C3d      0.49533    -0.01184   0.09819   1.00
C3       0.39341    -0.14641   0.10724   1.00
O2       0.33740    -0.20856   0.11178   1.00
C3       0.47242    -0.06293   0.08332   1.00
H1       0.49589    -0.04851   0.06851   1.00
C2       0.42093    -0.13119   0.08738   1.00
C5       0.64417    0.03237    0.13155   1.00
H2       0.68098    0.07864    0.14018   1.00
H2       0.63651    0.04893    0.11631   1.00
C5       0.67484    -0.01343   0.12892   1.00
H2       0.63727    -0.06055   0.12080   1.00
H2       0.68286    -0.02912   0.14423   1.00
C5       0.74224    0.02320    0.11716   1.00
H2       0.77984    0.07056    0.12511   1.00
H2       0.73390    0.03678    0.10161   1.00
H2       0.76463    -0.01053   0.11577   1.00
C5       0.52465    0.09586    0.08821   1.00
C5       0.35871    -0.25340   0.11930   1.00
H2       0.49639    0.10254    0.10097   1.00
H2       0.49025    0.07628    0.07475   1.00
H2       0.38857    -0.23257   0.13357   1.00
H2       0.39186    -0.26118   0.10831   1.00
H2       0.29535    -0.40078   0.10458   1.00
H2       0.55477    0.23272    0.09765   1.00
H2       0.52289    0.20699    0.07198   1.00
C2       0.54954    0.12761    0.16355   1.00
C3       0.49083    0.11472    0.15252   1.00
O2       0.46901    0.16173    0.15247   1.00
C3       0.57844    0.08581    0.15986   1.00
H1       0.62233    0.09321    0.16841   1.00
C3a      0.46367    0.06225    0.13787   1.00
H1       0.42107    0.05558    0.12875   1.00
C3b      0.55262    0.03512    0.14483   1.00
C4       0.49489    0.02306    0.13366   1.00
O_3      0.54958    0.05207    0.09365   1.00
C5       0.41292    0.14061    0.16566   1.00
H2       0.36936    0.09008    0.16102   1.00
C5       0.39115    0.19455    0.16448   1.00
H2       0.42729    0.13677    0.18157   1.00
H2       0.36014    0.18533    0.15050   1.00
H2       0.43822    0.24501    0.16249   1.00
C5       0.35111    0.19504    0.18334   1.00
H2       0.30736    0.14297    0.18602   1.00
H2       0.33128    0.23078    0.18119   1.00
H2       0.38434    0.21274    0.19712   1.00
C5       0.58584    0.16494    0.08300   1.00
H2       0.60704    0.16053    0.06820   1.00
H2       0.62607    0.17734    0.09464   1.00
C5       0.56711    0.22157    0.08223   1.00
H2       0.61093    0.26945    0.07635   1.00
C5       1.05707    0.37697    0.04413   1.00
H2       1.06089    0.41823    0.03414   1.00
H2       1.00284    0.33581    0.04353   1.00
C5       1.10392    0.35088    0.03591   1.00
H2       1.07864    0.31393    0.02330   1.00
H2       1.11652    0.32549    0.04826   1.00
O_3      1.02869    0.41016    0.14810   1.00
C4       1.02835    0.49840    0.11808   1.00
C3c      1.01958    0.46445    0.09954   1.00
H1       0.97270    0.41738    0.09662   1.00
C3d      1.08943    0.56017    0.12147   1.00
C3       1.07112    0.48989    0.08466   1.00
O2       1.05570    0.45851    0.06598   1.00
C3       1.14137    0.58495    0.10684   1.00
H1       1.18826    0.63123    0.11041   1.00
C2       1.13363    0.55087    0.08810   1.00
C5       1.07709    0.44508    0.16352   1.00
H2       1.05361    0.43332    0.17891   1.00
H2       1.10305    0.50140    0.16121   1.00
C5       1.12984    0.42238    0.16259   1.00
H2       1.15194    0.43237    0.14702   1.00
H2       1.10346    0.36620    0.16509   1.00
C5       1.18598    0.45988    0.17845   1.00
H2       1.16421    0.45052    0.19402   1.00
H2       1.21391    0.51578    0.17554   1.00
H2       1.22323    0.44153    0.17785   1.00
C5       1.07621    0.63754    0.14017   1.00
C5       1.07485    0.40792    0.06543   1.00
H2       1.01990    0.60928    0.13818   1.00
H2       1.09937    0.67678    0.12797   1.00
H2       1.04582    0.36797    0.07708   1.00
H2       1.13039    0.42906    0.06858   1.00
H2       1.15219    0.39356    0.02951   1.00
H2       0.99626    0.67071    0.16705   1.00
H2       1.05671    0.74316    0.15200   1.00
C2       0.87674    0.41970    0.16483   1.00
C3       0.87348    0.46094    0.14932   1.00
O2       0.83310    0.49020    0.15159   1.00
C3       0.92888    0.40264    0.16390   1.00
H1       0.93171    0.36973    0.17525   1.00
C3a      0.92274    0.48540    0.13371   1.00
H1       0.92186    0.52007    0.12260   1.00
C3b      0.97906    0.42882    0.14872   1.00
C4       0.97637    0.47067    0.13349   1.00
O_3      1.10268    0.59284    0.14005   1.00
C5       0.77225    0.45344    0.14039   1.00
H2       0.78301    0.45264    0.12389   1.00
C5       0.73105    0.48958    0.14341   1.00
H2       0.74204    0.39986    0.14591   1.00
H2       0.75218    0.53481    0.13321   1.00
H2       0.74017    0.50952    0.15923   1.00
C5       0.65414    0.44265    0.13951   1.00
H2       0.64633    0.41900    0.12425   1.00
H2       0.62682    0.47205    0.14018   1.00
H2       0.63037    0.40176    0.15128   1.00
C5       1.09306    0.67314    0.16068   1.00
H2       1.14877    0.71045    0.16119   1.00
H2       1.08256    0.63434    0.17264   1.00
C5       1.05136    0.70866    0.16476   1.00
H2       1.06996    0.73986    0.17879   1.00
C5       0.60861    0.64986    0.03947   1.00
H2       0.56249    0.61260    0.03100   1.00
H2       0.64507    0.63066    0.03847   1.00
C5       0.63905    0.72083    0.02935   1.00
H2       0.67070    0.72452    0.01597   1.00
H2       0.67126    0.76142    0.04042   1.00
O_3      0.60401    0.62129    0.14465   1.00
C4       0.50153    0.52998    0.11811   1.00
C3c      0.53012    0.54645    0.09859   1.00
H1       0.57292    0.53974    0.09490   1.00
C3d      0.44517    0.53817    0.12251   1.00
C3       0.50484    0.57260    0.08367   1.00
O2       0.52986    0.57965    0.06426   1.00
C3       0.42071    0.56543    0.10782   1.00
H1       0.37894    0.57307    0.11212   1.00
C2       0.44949    0.58305    0.08807   1.00
C5       0.57821    0.64470    0.16027   1.00
H2       0.59270    0.63560    0.17563   1.00
H2       0.52146    0.61918    0.15955   1.00
C5       0.60817    0.72099    0.15741   1.00
H2       0.59532    0.73023    0.14185   1.00
H2       0.66479    0.74599    0.15835   1.00
C5       0.58075    0.75031    0.17342   1.00
H2       0.59298    0.74084    0.18899   1.00
H2       0.52447    0.72707    0.17203   1.00
H2       0.60435    0.80634    0.17136   1.00
C5       0.36835    0.45838    0.14426   1.00
C5       0.58517    0.64650    0.06143   1.00
H2       0.39054    0.42461    0.14240   1.00
H2       0.32598    0.44268    0.13311   1.00
H2       0.62738    0.65649    0.07212   1.00
H2       0.57073    0.68640    0.06420   1.00
H2       0.59801    0.73020    0.02359   1.00
H2       0.33249    0.35173    0.17387   1.00
H2       0.25885    0.34369    0.16035   1.00
C2       0.58094    0.45756    0.16479   1.00
C3       0.53219    0.41115    0.15097   1.00
O2       0.49728    0.34222    0.15516   1.00
C3       0.60490    0.52798    0.16215   1.00
H1       0.64350    0.56494    0.17214   1.00
C3a      0.50742    0.43558    0.13535   1.00
H1       0.46728    0.39912    0.12561   1.00
C3b      0.57857    0.55193    0.14699   1.00
C4       0.52934    0.50565    0.13346   1.00
O_3      0.41848    0.52761    0.14192   1.00
C5       0.52486    0.30870    0.14391   1.00
H2       0.52167    0.31570    0.12726   1.00
C5       0.48286    0.23278    0.14912   1.00
H2       0.57927    0.32819    0.14803   1.00
H2       0.43461    0.21001    0.14023   1.00
H2       0.46816    0.22880    0.16540   1.00
C5       0.52156    0.19401    0.14508   1.00
H2       0.54050    0.20297    0.12920   1.00
H2       0.48756    0.13822    0.14741   1.00
H2       0.56543    0.21046    0.15575   1.00
C5       0.33965    0.44949    0.16563   1.00
H2       0.30739    0.47378    0.16636   1.00
H2       0.38300    0.47804    0.17629   1.00
C5       0.29858    0.37393    0.17187   1.00
H2       0.27262    0.36896    0.18659   1.00
C5       0.34387    0.64822    0.70920   1.00
H2       0.33829    0.60573    0.71895   1.00
H2       0.34304    0.63142    0.69332   1.00
C5       0.28336    0.66042    0.71300   1.00
H2       0.23757    0.62329    0.70430   1.00
H2       0.29740    0.71309    0.70834   1.00
O_3      0.67089    0.92314    0.69440   1.00
C4       0.63840    0.80219    0.71529   1.00
C3c      0.56991    0.75591    0.71064   1.00
H1       0.55558    0.73869    0.69519   1.00
C3d      0.65615    0.82324    0.73557   1.00
C3       0.51889    0.73194    0.72567   1.00
O2       0.45465    0.68056    0.72048   1.00
C3       0.60527    0.80048    0.75050   1.00
H1       0.62097    0.81990    0.76571   1.00
C2       0.53566    0.75425    0.74602   1.00
C5       0.71268    0.98226    0.70588   1.00
H2       0.76021    1.01839    0.69764   1.00
H2       0.72745    0.96898    0.72061   1.00
C5       0.67207    1.01777    0.71006   1.00
H2       0.62366    0.98105    0.71779   1.00
H2       0.65815    1.03136    0.69526   1.00
C5       0.71304    1.08158    0.72314   1.00
H2       0.76167    1.11827    0.71558   1.00
H2       0.72493    1.06780    0.73819   1.00
H2       0.68312    1.10768    0.72566   1.00
C5       0.76103    0.84127    0.74474   1.00
C5       0.41421    0.70877    0.71426   1.00
H2       0.76488    0.81440    0.73113   1.00
H2       0.73899    0.80397    0.75747   1.00
H2       0.43701    0.74142    0.70058   1.00
H2       0.40980    0.74127    0.72627   1.00
H2       0.26809    0.65289    0.72934   1.00
H2       0.89394    0.86223    0.73414   1.00
H2       0.86613    0.82510    0.75921   1.00
C2       0.79460    0.88285    0.66989   1.00
C3       0.77665    0.82023    0.67941   1.00
O2       0.81922    0.79314    0.67814   1.00
C3       0.75760    0.91589    0.67501   1.00
H1       0.76890    0.96299    0.66762   1.00
C3a      0.72406    0.79322    0.69402   1.00
H1       0.71356    0.74726    0.70201   1.00
C3b      0.70682    0.89002    0.69002   1.00
C4       0.68975    0.82831    0.69969   1.00
O_3      0.72189    0.87263    0.74068   1.00
C5       0.79405    0.74000    0.66372   1.00
H2       0.74189    0.69823    0.66786   1.00
C5       0.84318    0.71204    0.66347   1.00
H2       0.79199    0.75925    0.64833   1.00
H2       0.83129    0.67718    0.67667   1.00
H2       0.89550    0.75584    0.66604   1.00
C5       0.84012    0.67500    0.64354   1.00
H2       0.78659    0.63498    0.64040   1.00
H2       0.87214    0.65051    0.64458   1.00
H2       0.86026    0.71133    0.63048   1.00
C5       0.83232    0.89723    0.75064   1.00
H2       0.82992    0.91604    0.76605   1.00
H2       0.84807    0.94081    0.73999   1.00
C5       0.88429    0.87229    0.75003   1.00
H2       0.93381    0.91198    0.75641   1.00
C5       0.42842    0.60529    0.72388   1.00
H2       0.40763    0.64043    0.72477   1.00
H2       0.44369    0.60637    0.70781   1.00
C5       0.49116    0.63123    0.73800   1.00
H2       0.53763    0.67245    0.73052   1.00
H2       0.50009    0.58855    0.74197   1.00
O_3      0.19709    0.25769    0.71585   1.00
C4       0.16397    0.36206    0.71515   1.00
C3c      0.22602    0.42312    0.71257   1.00
H1       0.25475    0.43168    0.69872   1.00
C3d      0.12684    0.35233    0.73319   1.00
C3       0.25242    0.47345    0.72781   1.00
O2       0.30898    0.53514    0.72322   1.00
C3       0.15362    0.40178    0.74855   1.00
H1       0.12451    0.39100    0.76242   1.00
C2       0.21666    0.46349    0.74628   1.00
C5       0.15872    0.20663    0.73029   1.00
H2       0.13151    0.15474    0.72340   1.00
H2       0.12016    0.21626    0.73779   1.00
C5       0.20799    0.20813    0.74621   1.00
H2       0.23657    0.26052    0.75269   1.00
H2       0.24585    0.19782    0.73858   1.00
C5       0.17003    0.15557    0.76296   1.00
H2       0.14099    0.10318    0.75657   1.00
H2       0.13391    0.16721    0.77105   1.00
H2       0.20701    0.15638    0.77421   1.00
C5       0.01141    0.29279    0.72898   1.00
C5       0.36873    0.53470    0.72920   1.00
H2       0.01552    0.29908    0.71222   1.00
H2       0.00585    0.33502    0.73566   1.00
H2       0.37313    0.49437    0.72075   1.00
H2       0.36914    0.52423    0.74576   1.00
H2       0.48399    0.65378    0.75223   1.00
H2       -0.10743   0.20487    0.70502   1.00
H2       -0.12247   0.25754    0.72271   1.00
C2       0.08481    0.20387    0.67036   1.00
C3       0.07048    0.25770    0.66909   1.00
O2       0.01834    0.25176    0.65686   1.00
C3       0.12827    0.20562    0.68606   1.00
H1       0.14165    0.16613    0.68714   1.00
C3a      0.09804    0.31046    0.68365   1.00
H1       0.08345    0.34919    0.68315   1.00
C3b      0.15381    0.25699    0.70089   1.00
C4       0.13867    0.30989    0.69980   1.00
O_3      0.06814    0.29105    0.73713   1.00
C5       0.04501    0.28875    0.63873   1.00
H2       0.08036    0.34400    0.64186   1.00
C5       -0.01559   0.28060    0.62623   1.00
H2       0.07312    0.26847    0.62996   1.00
H2       -0.03155   0.31638    0.63228   1.00
H2       -0.05890   0.22812    0.62896   1.00
C5       0.00031    0.29286    0.60337   1.00
H2       0.04688    0.34327    0.60104   1.00
H2       -0.04282   0.29216    0.59504   1.00
H2       0.00795    0.25200    0.59651   1.00
C5       -0.05188   0.22506    0.73399   1.00
H2       -0.06251   0.22411    0.75052   1.00
H2       -0.04025   0.18346    0.73110   1.00
C5       -0.11400   0.21335    0.72135   1.00
H2       -0.16059   0.16721    0.72686   1.00
C5       0.18741    0.57590    0.72204   1.00
H2       0.24349    0.59860    0.72346   1.00
H2       0.17544    0.56221    0.70579   1.00
C5       0.15107    0.51139    0.73549   1.00
H2       0.14867    0.46664    0.72768   1.00
H2       0.09832    0.49991    0.73903   1.00
O_3      0.05907    0.79750    0.71468   1.00
C4       0.19808    0.83606    0.71516   1.00
C3c      0.20018    0.77573    0.71218   1.00
H1       0.18245    0.74837    0.69801   1.00
C3d      0.22233    0.87146    0.73362   1.00
C3       0.22408    0.74927    0.72740   1.00
O2       0.23241    0.69480    0.72249   1.00
C3       0.24495    0.84456    0.74896   1.00
H1       0.26078    0.87221    0.76313   1.00
C2       0.24671    0.78322    0.74628   1.00
C5       0.04273    0.83274    0.72926   1.00
H2       0.01707    0.85900    0.72237   1.00
H2       0.08935    0.87168    0.73734   1.00
C5       -0.00563   0.78068    0.74451   1.00
H2       0.01926    0.75310    0.75097   1.00
H2       -0.05224   0.74244    0.73630   1.00
C5       -0.02417   0.81517    0.76138   1.00
H2       -0.04861   0.84321    0.75502   1.00
H2       0.02205    0.85164    0.77004   1.00
H2       -0.06071   0.77616    0.77213   1.00
C5       0.27465    0.98714    0.73054   1.00
C5       0.17298    0.63309    0.72766   1.00
H2       0.27897    0.98515    0.71378   1.00
H2       0.32245    0.99393    0.73760   1.00
H2       0.12844    0.62777    0.71887   1.00
H2       0.15999    0.63030    0.74413   1.00
H2       0.17948    0.51808    0.74996   1.00
H2       0.30356    1.10730    0.70758   1.00
H2       0.37002    1.12298    0.72583   1.00
C2       0.11886    0.91496    0.67035   1.00
C3       0.18796    0.93214    0.66966   1.00
O2       0.23417    0.98651    0.65810   1.00
C3       0.07645    0.86887    0.68547   1.00
H1       0.02293    0.85332    0.68608   1.00
C3a      0.21330    0.90469    0.68420   1.00
H1       0.26715    0.92136    0.68418   1.00
C3b      0.10230    0.84338    0.70030   1.00
C4       0.17123    0.86132    0.69979   1.00
O_3      0.21658    0.92820    0.73791   1.00
C5       0.24799    0.96301    0.63988   1.00
H2       0.26956    0.92903    0.64292   1.00
C5       0.30022    1.02596    0.62814   1.00
H2       0.20084    0.93442    0.63059   1.00
H2       0.35166    1.04316    0.63467   1.00
H2       0.28859    1.06752    0.63109   1.00
C5       0.29983    1.01290    0.60517   1.00
H2       0.30613    0.96787    0.60258   1.00
H2       0.34216    1.05786    0.59744   1.00
H2       0.25142    1.00406    0.59793   1.00
C5       0.26668    1.04816    0.73592   1.00
H2       0.27420    1.05707    0.75257   1.00
H2       0.21316    1.03476    0.73258   1.00
C5       0.31677    1.11251    0.72404   1.00
H2       0.31449    1.15738    0.72985   1.00
