data_IRMOF10_interpen_symm_ligand4lp_label_g_2.

_audit_creation_method             'generated by an auxiliary program of Tobunporous'

_symmetry_space_group_name_H-M     'P 1'
_symmetry_Int_Tables_number        1
_symmetry_cell_setting             triclinic

_cell_length_a                    22.6523
_cell_length_b                    22.6523
_cell_length_c                    65.9502
_cell_angle_alpha                 90.0000
_cell_angle_beta                  90.0000
_cell_angle_gamma                 120.0000

loop_
_atom_site_label
_atom_site_fract_x
_atom_site_fract_y
_atom_site_fract_z
_atom_site_occupancy
O1       0.00000    -0.00000   0.62500   1.00
Zn1      0.00000    -0.00000   0.59589   1.00
Zn1      0.94848    1.04288    0.63392   1.00
Zn1      0.09439    0.05152    0.63392   1.00
Zn1      -0.04288   0.90561    0.63392   1.00
O2       0.93860    0.02610    0.58587   1.00
O2       0.08750    0.06140    0.58587   1.00
O2       -0.02610   0.91250    0.58587   1.00
O2       0.91305    0.07161    0.61181   1.00
O2       0.00462    0.12022    0.65110   1.00
O2       0.87413    0.98074    0.65071   1.00
O2       0.15856    0.08695    0.61181   1.00
O2       0.10660    0.12587    0.65071   1.00
O2       0.11559    0.99538    0.65110   1.00
O2       -0.07161   0.84144    0.61181   1.00
O2       0.87978    0.88441    0.65110   1.00
O2       0.01926    0.89340    0.65071   1.00
C1       0.91390    0.06020    0.59358   1.00
C1       0.14630    0.08610    0.59358   1.00
C1       -0.06020   0.85370    0.59358   1.00
C1       0.06663    0.14397    0.65673   1.00
C1       0.85603    0.92267    0.65673   1.00
C1       0.07733    0.93337    0.65673   1.00
O1       -0.00000   0.00000    0.87500   1.00
Zn1      -0.00000   0.00000    0.90411   1.00
Zn1      1.04288    0.94848    0.86608   1.00
Zn1      0.05152    0.09439    0.86608   1.00
Zn1      0.90561    -0.04288   0.86608   1.00
O2       0.02610    0.93860    0.91413   1.00
O2       0.06140    0.08750    0.91413   1.00
O2       0.91250    -0.02610   0.91413   1.00
O2       0.07161    0.91305    0.88819   1.00
O2       0.12022    0.00462    0.84890   1.00
O2       0.98074    0.87413    0.84929   1.00
O2       0.08695    0.15856    0.88819   1.00
O2       0.12587    0.10660    0.84929   1.00
O2       0.99538    0.11559    0.84890   1.00
O2       0.84144    -0.07161   0.88819   1.00
O2       0.88441    0.87978    0.84890   1.00
O2       0.89340    0.01926    0.84929   1.00
C1       0.06020    0.91390    0.90642   1.00
C1       0.08610    0.14630    0.90642   1.00
C1       0.85370    -0.06020   0.90642   1.00
C1       0.14397    0.06663    0.84327   1.00
C1       0.92267    0.85603    0.84327   1.00
C1       0.93337    0.07733    0.84327   1.00
O1       0.00000    0.00000    0.37500   1.00
Zn1      0.00000    0.00000    0.40411   1.00
Zn1      0.05152    -0.04288   0.36608   1.00
Zn1      0.90561    0.94848    0.36608   1.00
Zn1      1.04288    0.09439    0.36608   1.00
O2       0.06140    -0.02610   0.41413   1.00
O2       0.91250    0.93860    0.41413   1.00
O2       0.02610    0.08750    0.41413   1.00
O2       0.08695    -0.07161   0.38819   1.00
O2       0.99538    0.87978    0.34890   1.00
O2       0.12587    0.01926    0.34929   1.00
O2       0.84144    0.91305    0.38819   1.00
O2       0.89340    0.87413    0.34929   1.00
O2       0.88441    0.00462    0.34890   1.00
O2       0.07161    0.15856    0.38819   1.00
O2       0.12022    0.11559    0.34890   1.00
O2       0.98074    0.10660    0.34929   1.00
C1       0.08610    -0.06020   0.40642   1.00
C1       0.85370    0.91390    0.40642   1.00
C1       0.06020    0.14630    0.40642   1.00
C1       0.93337    0.85603    0.34327   1.00
C1       0.14397    0.07733    0.34327   1.00
C1       0.92267    0.06663    0.34327   1.00
O1       0.00000    0.00000    0.12500   1.00
Zn1      0.00000    0.00000    0.09589   1.00
Zn1      -0.04288   0.05152    0.13392   1.00
Zn1      0.94848    0.90561    0.13392   1.00
Zn1      0.09439    1.04288    0.13392   1.00
O2       -0.02610   0.06140    0.08587   1.00
O2       0.93860    0.91250    0.08587   1.00
O2       0.08750    0.02610    0.08587   1.00
O2       -0.07161   0.08695    0.11181   1.00
O2       0.87978    0.99538    0.15110   1.00
O2       0.01926    0.12587    0.15071   1.00
O2       0.91305    0.84144    0.11181   1.00
O2       0.87413    0.89340    0.15071   1.00
O2       0.00462    0.88441    0.15110   1.00
O2       0.15856    0.07161    0.11181   1.00
O2       0.11559    0.12022    0.15110   1.00
O2       0.10660    0.98074    0.15071   1.00
C1       -0.06020   0.08610    0.09358   1.00
C1       0.91390    0.85370    0.09358   1.00
C1       0.14630    0.06020    0.09358   1.00
C1       0.85603    0.93337    0.15673   1.00
C1       0.07733    0.14397    0.15673   1.00
C1       0.06663    0.92267    0.15673   1.00
O1       0.66667    0.33333    0.95833   1.00
Zn1      0.66667    0.33333    0.92922   1.00
Zn1      0.61515    0.37621    0.96725   1.00
Zn1      0.76106    0.38485    0.96725   1.00
Zn1      -0.37621   0.23894    0.96725   1.00
O2       0.60527    0.35943    0.91920   1.00
O2       0.75417    0.39473    0.91920   1.00
O2       0.64057    0.24583    0.91920   1.00
O2       0.57972    0.40494    0.94514   1.00
O2       0.67129    0.45355    0.98443   1.00
O2       0.54080    0.31407    0.98404   1.00
O2       0.82523    0.42028    0.94514   1.00
O2       0.77327    0.45920    0.98404   1.00
O2       -0.21774   0.32871    0.98443   1.00
O2       0.59506    0.17477    0.94514   1.00
O2       0.54645    0.21774    0.98443   1.00
O2       -0.31407   0.22673    0.98404   1.00
C1       0.58057    0.39353    0.92691   1.00
C1       0.81297    0.41943    0.92691   1.00
C1       0.60647    0.18703    0.92691   1.00
C1       0.73330    0.47730    0.99006   1.00
C1       0.52270    0.25600    0.99006   1.00
C1       -0.25600   0.26670    0.99006   1.00
O1       0.66667    0.33333    0.20833   1.00
Zn1      0.66667    0.33333    0.23744   1.00
Zn1      0.70954    0.28182    0.19942   1.00
Zn1      0.71818    0.42773    0.19942   1.00
Zn1      0.57227    0.29046    0.19942   1.00
O2       0.69277    0.27193    0.24746   1.00
O2       0.72807    0.42083    0.24746   1.00
O2       0.57917    0.30723    0.24746   1.00
O2       0.73828    0.24638    0.22152   1.00
O2       0.78688    0.33796    0.18224   1.00
O2       0.64740    0.20747    0.18263   1.00
O2       0.75362    0.49189    0.22152   1.00
O2       0.79253    0.43994    0.18263   1.00
O2       0.66204    0.44893    0.18224   1.00
O2       0.50811    0.26172    0.22152   1.00
O2       0.55107    0.21312    0.18224   1.00
O2       0.56006    0.35260    0.18263   1.00
C1       0.72687    0.24723    0.23975   1.00
C1       0.75277    0.47963    0.23975   1.00
C1       0.52037    0.27313    0.23975   1.00
C1       0.81063    0.39997    0.17661   1.00
C1       0.58933    0.18937    0.17661   1.00
C1       0.60003    0.41067    0.17661   1.00
O1       0.66667    0.33333    0.70833   1.00
Zn1      0.66667    0.33333    0.73744   1.00
Zn1      0.71818    0.29046    0.69942   1.00
Zn1      0.57227    0.28182    0.69942   1.00
Zn1      0.70954    0.42773    0.69942   1.00
O2       0.72807    0.30723    0.74746   1.00
O2       0.57917    0.27193    0.74746   1.00
O2       0.69277    0.42083    0.74746   1.00
O2       0.75362    0.26172    0.72152   1.00
O2       0.66204    0.21312    0.68224   1.00
O2       0.79253    0.35260    0.68263   1.00
O2       0.50811    0.24638    0.72152   1.00
O2       0.56006    0.20747    0.68263   1.00
O2       0.55107    0.33796    0.68224   1.00
O2       0.73828    0.49189    0.72152   1.00
O2       0.78688    0.44893    0.68224   1.00
O2       0.64740    0.43994    0.68263   1.00
C1       0.75277    0.27313    0.73975   1.00
C1       0.52037    0.24723    0.73975   1.00
C1       0.72687    0.47963    0.73975   1.00
C1       0.60003    0.18937    0.67661   1.00
C1       0.81063    0.41067    0.67661   1.00
C1       0.58933    0.39997    0.67661   1.00
O1       0.66667    0.33333    0.45833   1.00
Zn1      0.66667    0.33333    0.42922   1.00
Zn1      -0.37621   0.38485    0.46725   1.00
Zn1      0.61515    0.23894    0.46725   1.00
Zn1      0.76106    0.37621    0.46725   1.00
O2       0.64057    0.39473    0.41920   1.00
O2       0.60527    0.24583    0.41920   1.00
O2       0.75417    0.35943    0.41920   1.00
O2       0.59506    0.42028    0.44514   1.00
O2       0.54645    0.32871    0.48443   1.00
O2       -0.31407   0.45920    0.48404   1.00
O2       0.57972    0.17477    0.44514   1.00
O2       0.54080    0.22673    0.48404   1.00
O2       0.67129    0.21774    0.48443   1.00
O2       0.82523    0.40494    0.44514   1.00
O2       -0.21774   0.45355    0.48443   1.00
O2       0.77327    0.31407    0.48404   1.00
C1       0.60647    0.41943    0.42691   1.00
C1       0.58057    0.18703    0.42691   1.00
C1       0.81297    0.39353    0.42691   1.00
C1       0.52270    0.26670    0.49006   1.00
C1       -0.25600   0.47730    0.49006   1.00
C1       0.73330    0.25600    0.49006   1.00
O1       0.33333    0.66667    0.29167   1.00
Zn1      0.33333    0.66667    0.26256   1.00
Zn1      0.28182    0.70954    0.30058   1.00
Zn1      0.42773    0.71818    0.30058   1.00
Zn1      0.29046    0.57227    0.30058   1.00
O2       0.27193    0.69277    0.25254   1.00
O2       0.42083    0.72807    0.25254   1.00
O2       0.30723    0.57917    0.25254   1.00
O2       0.24638    0.73828    0.27848   1.00
O2       0.33796    0.78688    0.31776   1.00
O2       0.20747    0.64740    0.31737   1.00
O2       0.49189    0.75362    0.27848   1.00
O2       0.43994    0.79253    0.31737   1.00
O2       0.44893    0.66204    0.31776   1.00
O2       0.26172    0.50811    0.27848   1.00
O2       0.21312    0.55107    0.31776   1.00
O2       0.35260    0.56006    0.31737   1.00
C1       0.24723    0.72687    0.26025   1.00
C1       0.47963    0.75277    0.26025   1.00
C1       0.27313    0.52037    0.26025   1.00
C1       0.39997    0.81063    0.32339   1.00
C1       0.18937    0.58933    0.32339   1.00
C1       0.41067    0.60003    0.32339   1.00
O1       0.33333    0.66667    0.54167   1.00
Zn1      0.33333    0.66667    0.57078   1.00
Zn1      0.37621    0.61515    0.53275   1.00
Zn1      0.38485    0.76106    0.53275   1.00
Zn1      0.23894    -0.37621   0.53275   1.00
O2       0.35943    0.60527    0.58080   1.00
O2       0.39473    0.75417    0.58080   1.00
O2       0.24583    0.64057    0.58080   1.00
O2       0.40494    0.57972    0.55486   1.00
O2       0.45355    0.67129    0.51557   1.00
O2       0.31407    0.54080    0.51596   1.00
O2       0.42028    0.82523    0.55486   1.00
O2       0.45920    0.77327    0.51596   1.00
O2       0.32871    -0.21774   0.51557   1.00
O2       0.17477    0.59506    0.55486   1.00
O2       0.21774    0.54645    0.51557   1.00
O2       0.22673    -0.31407   0.51596   1.00
C1       0.39353    0.58057    0.57309   1.00
C1       0.41943    0.81297    0.57309   1.00
C1       0.18703    0.60647    0.57309   1.00
C1       0.47730    0.73330    0.50994   1.00
C1       0.25600    0.52270    0.50994   1.00
C1       0.26670    -0.25600   0.50994   1.00
O1       0.33333    0.66667    0.04167   1.00
Zn1      0.33333    0.66667    0.07078   1.00
Zn1      0.38485    -0.37621   0.03275   1.00
Zn1      0.23894    0.61515    0.03275   1.00
Zn1      0.37621    0.76106    0.03275   1.00
O2       0.39473    0.64057    0.08080   1.00
O2       0.24583    0.60527    0.08080   1.00
O2       0.35943    0.75417    0.08080   1.00
O2       0.42028    0.59506    0.05486   1.00
O2       0.32871    0.54645    0.01557   1.00
O2       0.45920    -0.31407   0.01596   1.00
O2       0.17477    0.57972    0.05486   1.00
O2       0.22673    0.54080    0.01596   1.00
O2       0.21774    0.67129    0.01557   1.00
O2       0.40494    0.82523    0.05486   1.00
O2       0.45355    -0.21774   0.01557   1.00
O2       0.31407    0.77327    0.01596   1.00
C1       0.41943    0.60647    0.07309   1.00
C1       0.18703    0.58057    0.07309   1.00
C1       0.39353    0.81297    0.07309   1.00
C1       0.26670    0.52270    0.00994   1.00
C1       0.47730    -0.25600   0.00994   1.00
C1       0.25600    0.73330    0.00994   1.00
O1       0.33333    0.66667    0.79167   1.00
Zn1      0.33333    0.66667    0.76256   1.00
Zn1      0.29046    0.71818    0.80058   1.00
Zn1      0.28182    0.57227    0.80058   1.00
Zn1      0.42773    0.70954    0.80058   1.00
O2       0.30723    0.72807    0.75254   1.00
O2       0.27193    0.57917    0.75254   1.00
O2       0.42083    0.69277    0.75254   1.00
O2       0.26172    0.75362    0.77848   1.00
O2       0.21312    0.66204    0.81776   1.00
O2       0.35260    0.79253    0.81737   1.00
O2       0.24638    0.50811    0.77848   1.00
O2       0.20747    0.56006    0.81737   1.00
O2       0.33796    0.55107    0.81776   1.00
O2       0.49189    0.73828    0.77848   1.00
O2       0.44893    0.78688    0.81776   1.00
O2       0.43994    0.64740    0.81737   1.00
C1       0.27313    0.75277    0.76025   1.00
C1       0.24723    0.52037    0.76025   1.00
C1       0.47963    0.72687    0.76025   1.00
C1       0.18937    0.60003    0.82339   1.00
C1       0.41067    0.81063    0.82339   1.00
C1       0.39997    0.58933    0.82339   1.00
C4       -0.17593   0.63428    0.53698   1.00
C4       -0.14995   0.68794    0.55164   1.00
C3       -0.16226   0.57937    0.53793   1.00
C3       -0.11465   0.68675    0.56939   1.00
C3       -0.21716   0.63477    0.52063   1.00
C3       -0.15926   0.74533    0.54871   1.00
C2       -0.23119   0.52398    0.50791   1.00
C2       -0.09447   0.79798    0.58080   1.00
C3       -0.18926   0.52568    0.52392   1.00
C3       -0.08741   0.74017    0.58349   1.00
C3       -0.24398   0.57893    0.50674   1.00
C3       -0.13041   0.79885    0.56337   1.00
H1       -0.13162   0.57669    0.54872   1.00
H1       -0.10799   0.64670    0.57284   1.00
C5       -0.23032   0.69015    0.51839   1.00
C5       -0.19684   0.74808    0.53158   1.00
H1       -0.17772   0.48745    0.52548   1.00
H1       -0.06225   0.73636    0.59594   1.00
H1       -0.27389   0.57723    0.49499   1.00
H1       -0.13555   0.84070    0.56174   1.00
C6       -0.27985   0.68643    0.50232   1.00
C6       -0.20005   0.81222    0.52751   1.00
H2       -0.32455   0.63549    0.50239   1.00
H2       -0.14951   0.85646    0.52968   1.00
H2       -0.30209   0.71777    0.50624   1.00
H2       -0.20930   0.81695    0.51157   1.00
C6       -0.24717   0.70709    0.48068   1.00
C6       -0.25517   0.81726    0.54059   1.00
H2       -0.21627   0.68324    0.47778   1.00
H2       -0.25263   0.80280    0.55625   1.00
C6       -0.29650   0.69084    0.46223   1.00
C6       -0.25295   0.88747    0.54106   1.00
H2       -0.21112   0.76189    0.48082   1.00
H2       -0.30530   0.77858    0.53508   1.00
C6       -0.34241   0.61292    0.45894   1.00
C6       -0.18770   0.94324    0.55172   1.00
C6       -0.34207   0.72342    0.46483   1.00
C6       -0.25719   0.91194    0.51944   1.00
C6       -0.25303   0.72103    0.44276   1.00
C6       -0.31531   0.87892    0.55332   1.00
H2       -0.31177   0.58821    0.45738   1.00
H2       -0.18263   0.92704    0.56692   1.00
H2       -0.37742   0.58895    0.47157   1.00
H2       -0.14194   0.95489    0.54320   1.00
H2       -0.37319   0.60212    0.44524   1.00
H2       -0.18887   0.99064    0.55323   1.00
H2       -0.37273   0.71594    0.45128   1.00
H2       -0.26052   0.95836    0.52002   1.00
H2       -0.37707   0.70055    0.47754   1.00
H2       -0.21208   0.92324    0.51059   1.00
H2       -0.31102   0.77810    0.46760   1.00
H2       -0.30195   0.87298    0.51144   1.00
H2       -0.22034   0.69911    0.44009   1.00
H2       -0.31439   0.86234    0.56881   1.00
H2       -0.28528   0.71058    0.42940   1.00
H2       -0.31576   0.92684    0.55419   1.00
H2       -0.22045   0.77623    0.44398   1.00
H2       -0.36308   0.84111    0.54630   1.00
C4       0.36299    0.18580    0.53613   1.00
C4       0.30829    0.15799    0.55045   1.00
C3       0.43122    0.23415    0.54172   1.00
C3       0.31911    0.17100    0.57166   1.00
C3       0.34987    0.16513    0.51535   1.00
C3       0.23982    0.11533    0.54356   1.00
C2       0.47424    0.23956    0.50739   1.00
C2       0.19739    0.10451    0.57931   1.00
C3       0.48529    0.26002    0.52784   1.00
C3       0.26542    0.14543    0.58567   1.00
C3       0.40642    0.19240    0.50171   1.00
C3       0.18655    0.09060    0.55831   1.00
H1       0.44408    0.25290    0.55605   1.00
H1       0.36648    0.19901    0.57775   1.00
C5       0.28176    0.11879    0.50864   1.00
C5       0.22601    0.09808    0.52250   1.00
H1       0.53338    0.29455    0.53285   1.00
H1       0.27659    0.15689    0.60075   1.00
H1       0.39920    0.17856    0.48685   1.00
H1       0.13718    0.06051    0.55399   1.00
C6       0.26969    0.09178    0.48713   1.00
C6       0.15294    0.05899    0.51514   1.00
H2       0.30800    0.07794    0.48326   1.00
H2       0.12407    0.08016    0.52221   1.00
H2       0.22286    0.04296    0.48587   1.00
H2       0.14894    0.06836    0.49917   1.00
C6       0.26798    0.14249    0.47128   1.00
C6       0.11844    -0.01983   0.51872   1.00
H2       0.30974    0.19408    0.47434   1.00
H2       0.13066    -0.02951   0.53396   1.00
C6       0.27108    0.12707    0.44827   1.00
C6       0.03929    -0.06344   0.51593   1.00
H2       0.22139    0.14453    0.47388   1.00
H2       0.14231    -0.03951   0.50841   1.00
C6       0.34074    0.13400    0.44256   1.00
C6       0.00084    -0.04615   0.53223   1.00
C6       0.21301    0.05494    0.44238   1.00
C6       0.01696    -0.05372   0.49457   1.00
C6       0.26252    0.17986    0.43547   1.00
C6       0.01736    -0.13990   0.51840   1.00
H2       0.38290    0.18404    0.44683   1.00
H2       0.01632    -0.05144   0.54751   1.00
H2       0.34828    0.09549    0.45009   1.00
H2       0.01065    0.00584    0.53059   1.00
H2       0.34417    0.12783    0.42626   1.00
H2       -0.05417   -0.08001   0.53104   1.00
H2       0.21267    0.04655    0.42607   1.00
H2       -0.03758   -0.08794   0.49227   1.00
H2       0.21928    0.01561    0.44993   1.00
H2       0.02699    -0.00173   0.49254   1.00
H2       0.16346    0.04822    0.44664   1.00
H2       0.04436    -0.06420   0.48280   1.00
H2       0.30279    0.23177    0.43890   1.00
H2       0.03134    -0.14970   0.53336   1.00
H2       0.26479    0.17146    0.41925   1.00
H2       -0.03772   -0.17249   0.51671   1.00
H2       0.21357    0.17654    0.43853   1.00
H2       0.04179    -0.15560   0.50703   1.00
C4       0.81477    0.17120    0.53397   1.00
C4       0.84019    0.14127    0.54804   1.00
C3       0.83812    0.24246    0.53371   1.00
C3       0.89564    0.18117    0.56137   1.00
C3       0.76396    0.12903    0.51952   1.00
C3       0.80969    0.06873    0.54901   1.00
C2       0.76584    0.23229    0.50488   1.00
C2       0.88949    0.08069    0.57719   1.00
C3       0.81474    0.27224    0.51956   1.00
C3       0.91940    0.15193    0.57558   1.00
C3       0.74176    0.16141    0.50529   1.00
C3       0.83515    0.04095    0.56377   1.00
H1       0.87250    0.27531    0.54392   1.00
H1       0.92129    0.23301    0.56111   1.00
C5       0.73641    0.05659    0.51959   1.00
C5       0.75559    0.02598    0.53540   1.00
H1       0.83380    0.32398    0.52012   1.00
H1       0.95940    0.18351    0.58481   1.00
H1       0.70604    0.13319    0.49470   1.00
H1       0.81447    -0.01041   0.56502   1.00
C6       0.68814    0.01353    0.50288   1.00
C6       0.71900    -0.05069   0.53803   1.00
H2       0.70767    0.03896    0.48838   1.00
H2       0.70887    -0.06285   0.55410   1.00
H2       0.68879    -0.03371   0.50069   1.00
H2       0.66769    -0.07492   0.53182   1.00
C6       0.61278    -0.00363   0.50652   1.00
C6       0.75826    -0.08445   0.52840   1.00
H2       0.61245    0.04213    0.51164   1.00
H2       0.81240    -0.05430   0.53222   1.00
C6       0.56177    -0.03451   0.48835   1.00
C6       0.73348    -0.16051   0.53401   1.00
H2       0.59250    -0.03923   0.51924   1.00
H2       0.75590    -0.08080   0.51193   1.00
C6       0.58096    0.01741    0.47075   1.00
C6       0.74540    -0.16854   0.55677   1.00
C6       0.55804    -0.10044   0.48018   1.00
C6       0.65707    -0.20764   0.52889   1.00
C6       0.48955    -0.05302   0.49589   1.00
C6       0.77531    -0.18488   0.52143   1.00
H2       0.58510    0.06499    0.47609   1.00
H2       0.79871    -0.13507   0.56095   1.00
H2       0.62947    0.02953    0.46388   1.00
H2       0.71418    -0.15625   0.56650   1.00
H2       0.54256    -0.00285   0.45877   1.00
H2       0.73239    -0.22081   0.56022   1.00
H2       0.51885    -0.12418   0.46851   1.00
H2       0.64156    -0.26107   0.53149   1.00
H2       0.60640    -0.08947   0.47342   1.00
H2       0.62496    -0.19568   0.53835   1.00
H2       0.54600    -0.13733   0.49237   1.00
H2       0.64703    -0.20190   0.51304   1.00
H2       0.48919    -0.00797   0.50163   1.00
H2       0.82973    -0.15365   0.52465   1.00
H2       0.45210    -0.07442   0.48367   1.00
H2       0.76013    -0.23773   0.52492   1.00
H2       0.47251    -0.09063   0.50807   1.00
H2       0.76791    -0.18173   0.50519   1.00
C4       0.64434    -0.16849   0.96631   1.00
C4       0.69937    -0.13799   0.95214   1.00
C3       0.61051    -0.23935   0.97105   1.00
C3       0.72907    -0.17457   0.94336   1.00
C3       0.62152    -0.12734   0.97623   1.00
C3       0.72646    -0.06827   0.94638   1.00
C2       0.53526    -0.22960   0.99570   1.00
C2       0.80844    -0.07737   0.92273   1.00
C3       0.55786    -0.26903   0.98537   1.00
C3       0.78170    -0.14541   0.92903   1.00
C3       0.56799    -0.15946   0.99079   1.00
C3       0.77982    -0.04059   0.93165   1.00
H1       0.62240    -0.27219   0.96414   1.00
H1       0.71403    -0.22358   0.94720   1.00
C5       0.65167    -0.05626   0.97145   1.00
C5       0.70059    -0.02802   0.95534   1.00
H1       0.53572    -0.32038   0.98817   1.00
H1       0.80074    -0.17459   0.92321   1.00
H1       0.55069    -0.13181   0.99827   1.00
H1       0.80008    0.00865    0.92707   1.00
C6       0.63210    -0.01190   0.98360   1.00
C6       0.72461    0.04334    0.94753   1.00
H2       0.63052    -0.02422   0.99964   1.00
H2       0.72570    0.04283    0.93101   1.00
H2       0.67207    0.04133    0.98334   1.00
H2       0.68730    0.05919    0.95039   1.00
C6       0.56357    -0.01735   0.97640   1.00
C6       0.79504    0.09800    0.95658   1.00
H2       0.52558    -0.07084   0.97378   1.00
H2       0.83020    0.07813    0.95645   1.00
C6       0.53058    0.01392    0.99049   1.00
C6       0.83201    0.17008    0.94637   1.00
H2       0.57259    0.00706    0.96155   1.00
H2       0.78720    0.10447    0.97260   1.00
C6       0.50605    -0.02531   1.01085   1.00
C6       0.85491    0.16690    0.92442   1.00
C6       0.58055    0.09032    0.99489   1.00
C6       0.78624    0.20295    0.94608   1.00
C6       0.46716    0.00822    0.97957   1.00
C6       0.89702    0.21723    0.95885   1.00
H2       0.47151    -0.07966   1.00826   1.00
H2       0.88643    0.14291    0.92407   1.00
H2       0.54868    -0.01991   1.01991   1.00
H2       0.81137    0.13792    0.91447   1.00
H2       0.47894    -0.00618   1.01996   1.00
H2       0.88471    0.21787    0.91794   1.00
H2       0.55553    0.11283    1.00350   1.00
H2       0.81412    0.25503    0.94027   1.00
H2       0.62399    0.09686    1.00379   1.00
H2       0.74194    0.17425    0.93635   1.00
H2       0.59971    0.11888    0.98079   1.00
H2       0.76824    0.20450    0.96131   1.00
H2       0.42983    -0.04493   0.97630   1.00
H2       0.93151    0.19665    0.95936   1.00
H2       0.44203    0.02904    0.98889   1.00
H2       0.92491    0.26817    0.95222   1.00
H2       0.48139    0.03612    0.96525   1.00
H2       0.88407    0.22264    0.97442   1.00
C4       0.18579    0.36298    0.96388   1.00
C4       0.15798    0.30827    0.94956   1.00
C3       0.23405    0.43123    0.95827   1.00
C3       0.17090    0.31911    0.92834   1.00
C3       0.16521    0.34984    0.98466   1.00
C3       0.11542    0.23980    0.95644   1.00
C2       0.23954    0.47423    0.99261   1.00
C2       0.10450    0.19738    0.92070   1.00
C3       0.25992    0.48530    0.97215   1.00
C3       0.14533    0.26542    0.91433   1.00
C3       0.19247    0.40639    0.99829   1.00
C3       0.09069    0.18653    0.94170   1.00
H1       0.25274    0.44410    0.94394   1.00
H1       0.19883    0.36648    0.92225   1.00
C5       0.11896    0.28172    0.99138   1.00
C5       0.09826    0.22598    0.97751   1.00
H1       0.29439    0.53340    0.96714   1.00
H1       0.15673    0.27659    0.89925   1.00
H1       0.17870    0.39916    1.01316   1.00
H1       0.06066    0.13714    0.94603   1.00
C6       0.09204    0.26962    1.01290   1.00
C6       0.05929    0.15290    0.98488   1.00
H2       0.07815    0.30788    1.01678   1.00
H2       0.08048    0.12408    0.97779   1.00
H2       0.04326    0.22275    1.01417   1.00
H2       0.06873    0.14892    1.00084   1.00
C6       0.14285    0.26799    1.02873   1.00
C6       -0.01956   0.11831    0.98133   1.00
H2       0.19441    0.30979    1.02565   1.00
H2       -0.02933   0.13051    0.96610   1.00
C6       0.12751    0.27107    1.05174   1.00
C6       -0.06307   0.03915    0.98411   1.00
H2       0.14495    0.22143    1.02611   1.00
H2       -0.03924   0.14213    0.99165   1.00
C6       0.13437    0.34068    1.05747   1.00
C6       -0.04578   0.00076    0.96780   1.00
C6       0.05544    0.21293    1.05765   1.00
C6       -0.05323   0.01686    1.00547   1.00
C6       0.18041    0.26259    1.06451   1.00
C6       -0.13957   0.01713    0.98168   1.00
H2       0.18437    0.38289    1.05318   1.00
H2       -0.05116   0.01622    0.95253   1.00
H2       0.09579    0.34817    1.04995   1.00
H2       0.00624    0.01064    0.96942   1.00
H2       0.12826    0.34411    1.07377   1.00
H2       -0.07959   -0.05426   0.96899   1.00
H2       0.04711    0.21258    1.07397   1.00
H2       -0.08738   -0.03769   1.00777   1.00
H2       0.01604    0.21914    1.05012   1.00
H2       -0.00121   0.02696    1.00748   1.00
H2       0.04877    0.16341    1.05339   1.00
H2       -0.06371   0.04422    1.01725   1.00
H2       0.23228    0.30291    1.06107   1.00
H2       -0.14946   0.03108    0.96673   1.00
H2       0.17206    0.26485    1.08074   1.00
H2       -0.17209   -0.03795   0.98337   1.00
H2       0.17714    0.21367    1.06144   1.00
H2       -0.15527   0.04152    0.99306   1.00
C4       0.17120    0.81477    0.96603   1.00
C4       0.14126    0.84019    0.95196   1.00
C3       0.24246    0.83813    0.96629   1.00
C3       0.18117    0.89565    0.93863   1.00
C3       0.12903    0.76395    0.98048   1.00
C3       0.06872    0.80968    0.95099   1.00
C2       0.23229    0.76584    0.99512   1.00
C2       0.08069    0.88948    0.92281   1.00
C3       0.27224    0.81474    0.98044   1.00
C3       0.15193    0.91941    0.92442   1.00
C3       0.16141    0.74175    0.99470   1.00
C3       0.04095    0.83514    0.93622   1.00
H1       0.27532    0.87252    0.95608   1.00
H1       0.23301    0.92130    0.93889   1.00
C5       0.05658    0.73639    0.98041   1.00
C5       0.02598    0.75558    0.96460   1.00
H1       0.32398    0.83381    0.97988   1.00
H1       0.18351    0.95941    0.91519   1.00
H1       0.13319    0.70602    1.00530   1.00
H1       -0.01041   0.81446    0.93498   1.00
C6       0.01352    0.68811    0.99711   1.00
C6       -0.05070   0.71897    0.96196   1.00
H2       0.03895    0.70764    1.01162   1.00
H2       -0.06285   0.70885    0.94589   1.00
H2       -0.03372   0.68875    0.99930   1.00
H2       -0.07492   0.66766    0.96817   1.00
C6       -0.00362   0.61276    0.99347   1.00
C6       -0.08447   0.75823    0.97159   1.00
H2       0.04214    0.61244    0.98836   1.00
H2       -0.05432   0.81236    0.96778   1.00
C6       -0.03450   0.56174    1.01164   1.00
C6       -0.16053   0.73344    0.96598   1.00
H2       -0.03922   0.59248    0.98075   1.00
H2       -0.08082   0.75586    0.98806   1.00
C6       0.01740    0.58092    1.02924   1.00
C6       -0.16855   0.74536    0.94322   1.00
C6       -0.10044   0.55799    1.01980   1.00
C6       -0.20764   0.65703    0.97110   1.00
C6       -0.05301   0.48952    1.00410   1.00
C6       -0.18490   0.77525    0.97856   1.00
H2       0.06499    0.58507    1.02390   1.00
H2       -0.13508   0.79868    0.93904   1.00
H2       0.02951    0.62943    1.03611   1.00
H2       -0.15625   0.71415    0.93349   1.00
H2       -0.00285   0.54252    1.04122   1.00
H2       -0.22082   0.73235    0.93977   1.00
H2       -0.12419   0.51880    1.03147   1.00
H2       -0.26107   0.64150    0.96850   1.00
H2       -0.08949   0.60635    1.02657   1.00
H2       -0.19568   0.62492    0.96164   1.00
H2       -0.13733   0.54596    1.00762   1.00
H2       -0.20191   0.64698    0.98695   1.00
H2       -0.00795   0.48918    0.99836   1.00
H2       -0.15368   0.82968    0.97534   1.00
H2       -0.07441   0.45206    1.01632   1.00
H2       -0.23775   0.76007    0.97507   1.00
H2       -0.09061   0.47249    0.99191   1.00
H2       -0.18177   0.76785    0.99480   1.00
C4       0.17429    0.36655    0.46277   1.00
C4       0.14533    0.31440    0.44767   1.00
C3       0.23603    0.38326    0.47308   1.00
C3       0.17959    0.28036    0.44030   1.00
C3       0.14087    0.40387    0.46799   1.00
C3       0.07969    0.29497    0.43942   1.00
C2       0.23467    0.47426    0.49261   1.00
C2       0.08539    0.20662    0.41785   1.00
C3       0.26558    0.43567    0.48747   1.00
C3       0.15051    0.22787    0.42592   1.00
C3       0.17283    0.45711    0.48264   1.00
C3       0.05169    0.24102    0.42488   1.00
H1       0.26150    0.35753    0.47066   1.00
H1       0.22726    0.29288    0.44496   1.00
C5       0.07711    0.38745    0.45875   1.00
C5       0.04397    0.32936    0.44561   1.00
H1       0.31032    0.44539    0.49430   1.00
H1       0.17773    0.20515    0.42129   1.00
H1       0.15086    0.48508    0.48665   1.00
H1       0.00495    0.22545    0.41878   1.00
C6       0.04605    0.43200    0.46279   1.00
C6       -0.02837   0.30348    0.43841   1.00
H2       0.08596    0.48536    0.46201   1.00
H2       -0.05682   0.24805    0.43954   1.00
H2       0.01248    0.42892    0.45055   1.00
H2       -0.05653   0.31770    0.44876   1.00
C6       0.00598    0.41508    0.48334   1.00
C6       -0.03227   0.32834    0.41652   1.00
H2       0.03560    0.40827    0.49526   1.00
H2       0.00366    0.32331    0.40660   1.00
C6       -0.01519   0.46704    0.49126   1.00
C6       -0.10345   0.29305    0.40576   1.00
H2       -0.04012   0.36536    0.48169   1.00
H2       -0.01377   0.38304    0.41731   1.00
C6       0.04786    0.53628    0.49711   1.00
C6       -0.12861   0.21697    0.40108   1.00
C6       -0.05837   0.47941    0.47542   1.00
C6       -0.15791   0.29831    0.41862   1.00
C6       -0.05921   0.43713    0.51065   1.00
C6       -0.09646   0.32965    0.38524   1.00
H2       0.08002    0.52917    0.50804   1.00
H2       -0.09077   0.21144    0.39229   1.00
H2       0.07899    0.56221    0.48390   1.00
H2       -0.13866   0.18724    0.41493   1.00
H2       0.03249    0.57045    0.50392   1.00
H2       -0.17587   0.19411    0.39235   1.00
H2       -0.07694   0.51182    0.48162   1.00
H2       -0.20599   0.27794    0.41037   1.00
H2       -0.02827   0.50476    0.46198   1.00
H2       -0.16822   0.26939    0.43267   1.00
H2       -0.10236   0.43129    0.47072   1.00
H2       -0.14082   0.35129    0.42249   1.00
H2       -0.03077   0.42808    0.52244   1.00
H2       -0.05903   0.32680    0.37547   1.00
H2       -0.07491   0.47187    0.51685   1.00
H2       -0.14489   0.30649    0.37708   1.00
H2       -0.10530   0.38876    0.50741   1.00
H2       -0.08014   0.38339    0.38757   1.00
C4       0.64309    0.81533    0.46586   1.00
C4       0.69659    0.84292    0.45115   1.00
C3       0.64552    0.78006    0.48346   1.00
C3       0.75924    0.84350    0.45405   1.00
C3       0.58447    0.82271    0.46311   1.00
C3       0.68804    0.87131    0.43277   1.00
C2       0.53648    0.76243    0.49613   1.00
C2       0.80350    0.89566    0.42098   1.00
C3       0.59408    0.75467    0.49820   1.00
C3       0.81099    0.86872    0.43941   1.00
C3       0.53338    0.79646    0.47853   1.00
C3       0.74183    0.89614    0.41819   1.00
H1       0.68445    0.77090    0.48612   1.00
H1       0.76989    0.82625    0.46700   1.00
C5       0.57780    0.85521    0.44528   1.00
C5       0.62728    0.87475    0.42936   1.00
H1       0.59899    0.72996    0.51059   1.00
H1       0.85486    0.86744    0.44238   1.00
H1       0.49118    0.80114    0.47718   1.00
H1       0.73745    0.91628    0.40488   1.00
C6       0.51917    0.86913    0.44359   1.00
C6       0.61581    0.89819    0.40898   1.00
H2       0.51306    0.88892    0.45802   1.00
H2       0.62970    0.87425    0.39699   1.00
H2       0.53123    0.91151    0.43344   1.00
H2       0.56191    0.87810    0.40596   1.00
C6       0.45094    0.80546    0.43649   1.00
C6       0.65424    0.97773    0.40669   1.00
H2       0.44342    0.76021    0.44467   1.00
H2       0.70619    0.99931    0.41251   1.00
C6       0.38391    0.80905    0.43852   1.00
C6       0.65866    1.00751    0.38495   1.00
H2       0.45703    0.79592    0.42060   1.00
H2       0.62944    0.99724    0.41670   1.00
C6       0.36547    0.81160    0.46104   1.00
C6       0.70279    0.99127    0.37052   1.00
C6       0.38934    0.87143    0.42714   1.00
C6       0.58704    0.98040    0.37550   1.00
C6       0.32435    0.74364    0.42897   1.00
C6       0.69311    1.08629    0.38660   1.00
H2       0.36235    0.76879    0.46958   1.00
H2       0.75336    1.00879    0.37692   1.00
H2       0.40325    0.85850    0.46838   1.00
H2       0.67930    0.93675    0.36768   1.00
H2       0.31633    0.80930    0.46234   1.00
H2       0.70947    1.01619    0.35585   1.00
H2       0.34081    0.87077    0.42742   1.00
H2       0.59038    1.00513    0.36099   1.00
H2       0.42743    0.91898    0.43414   1.00
H2       0.56236    0.92570    0.37272   1.00
H2       0.40368    0.87163    0.41133   1.00
H2       0.55446    0.98991    0.38556   1.00
H2       0.31785    0.69799    0.43662   1.00
H2       0.74427    1.10815    0.39301   1.00
H2       0.27622    0.74355    0.43014   1.00
H2       0.69778    1.10954    0.37174   1.00
H2       0.33373    0.73964    0.41293   1.00
H2       0.66355    1.10104    0.39629   1.00
C4       0.18598    -0.17719   0.46381   1.00
C4       0.16094    -0.15034   0.44860   1.00
C3       0.15607    -0.19608   0.48346   1.00
C3       0.10010    -0.14721   0.45121   1.00
C3       0.24315    -0.18573   0.45949   1.00
C3       0.19743    -0.12554   0.42996   1.00
C2       0.23446    -0.23462   0.49426   1.00
C2       0.11206    -0.09298   0.41826   1.00
C3       0.17925    -0.22424   0.49821   1.00
C3       0.07649    -0.11912   0.43657   1.00
C3       0.26495    -0.21494   0.47488   1.00
C3       0.17187    -0.09698   0.41548   1.00
H1       0.11674    -0.18945   0.48787   1.00
H1       0.07030    -0.16584   0.46376   1.00
C5       0.27718    -0.16499   0.44027   1.00
C5       0.25744    -0.12996   0.42610   1.00
H1       0.15531    -0.23706   0.51206   1.00
H1       0.03240    -0.11811   0.43940   1.00
H1       0.30512    -0.22225   0.47233   1.00
H1       0.19666    -0.07840   0.40210   1.00
C6       0.33285    -0.18098   0.43512   1.00
C6       0.29951    -0.09700   0.40729   1.00
H2       0.31665    -0.23309   0.43975   1.00
H2       0.30487    -0.04677   0.40532   1.00
H2       0.33845    -0.18366   0.41882   1.00
H2       0.35225    -0.08419   0.40927   1.00
C6       0.40382    -0.12881   0.44444   1.00
C6       0.27011    -0.14195   0.38777   1.00
H2       0.39709    -0.11824   0.46019   1.00
H2       0.21487    -0.16328   0.38722   1.00
C6       0.46114    -0.14826   0.44398   1.00
C6       0.30009    -0.10735   0.36682   1.00
H2       0.42249    -0.08039   0.43647   1.00
H2       0.27751    -0.18585   0.38934   1.00
C6       0.44326    -0.21066   0.45770   1.00
C6       0.28214    -0.05116   0.36188   1.00
C6       0.47503    -0.16341   0.42213   1.00
C6       0.37849    -0.07618   0.36603   1.00
C6       0.52801    -0.08708   0.45224   1.00
C6       0.26822    -0.16245   0.34997   1.00
H2       0.43207    -0.20202   0.47317   1.00
H2       0.22715    -0.07130   0.36264   1.00
H2       0.39899    -0.25665   0.45202   1.00
H2       0.30648    -0.00863   0.37245   1.00
H2       0.48548    -0.22088   0.45839   1.00
H2       0.29913    -0.03067   0.34667   1.00
H2       0.51828    -0.17211   0.42179   1.00
H2       0.39825    -0.05654   0.35092   1.00
H2       0.43100    -0.20896   0.41609   1.00
H2       0.40381    -0.03388   0.37666   1.00
H2       0.48635    -0.12081   0.41205   1.00
H2       0.39260    -0.11436   0.36987   1.00
H2       0.52117    -0.07470   0.46776   1.00
H2       0.21279    -0.18564   0.34973   1.00
H2       0.56956    -0.09839   0.45235   1.00
H2       0.28729    -0.14062   0.33499   1.00
H2       0.54407    -0.04171   0.44293   1.00
H2       0.28030    -0.20294   0.35238   1.00
C4       0.35565    0.16843    0.03369   1.00
C4       0.30125    0.14190    0.04811   1.00
C3       0.37129    0.12550    0.02178   1.00
C3       0.25433    0.07075    0.05010   1.00
C3       0.39658    0.24052    0.03089   1.00
C3       0.29261    0.18753    0.06113   1.00
C2       0.46350    0.22186    0.00382   1.00
C2       0.19325    0.08794    0.07793   1.00
C3       0.42331    0.15126    0.00722   1.00
C3       0.20215    0.04444    0.06462   1.00
C3       0.44883    0.26467    0.01583   1.00
C3       0.23906    0.15865    0.07578   1.00
H1       0.34590    0.07394    0.02339   1.00
H1       0.25588    0.03540    0.04095   1.00
C5       0.38513    0.28640    0.04303   1.00
C5       0.33648    0.25984    0.05925   1.00
H1       0.43185    0.11760    -0.00093   1.00
H1       0.17016    -0.00740   0.06534   1.00
H1       0.47870    0.31556    0.01330   1.00
H1       0.23159    0.18941    0.08540   1.00
C6       0.42389    0.36204    0.03843   1.00
C6       0.33142    0.30707    0.07452   1.00
H2       0.42467    0.36937    0.02208   1.00
H2       0.32690    0.28612    0.08969   1.00
H2       0.39646    0.38719    0.04362   1.00
H2       0.37897    0.35526    0.07569   1.00
C6       0.49756    0.39963    0.04766   1.00
C6       0.27208    0.32173    0.06983   1.00
H2       0.52214    0.36929    0.04500   1.00
H2       0.22613    0.27418    0.06572   1.00
C6       0.54745    0.47402    0.04022   1.00
C6       0.25229    0.35707    0.08680   1.00
H2       0.49261    0.40073    0.06412   1.00
H2       0.28602    0.35342    0.05622   1.00
C6       0.56597    0.47569    0.01749   1.00
C6       0.22141    0.31037    0.10562   1.00
C6       0.51727    0.52138    0.04361   1.00
C6       0.31429    0.42573    0.09349   1.00
C6       0.61460    0.50307    0.05260   1.00
C6       0.19721    0.37202    0.07823   1.00
H2       0.58641    0.44187    0.01453   1.00
H2       0.17816    0.26101    0.10135   1.00
H2       0.52167    0.45984    0.00777   1.00
H2       0.25885    0.30118    0.11316   1.00
H2       0.60434    0.52701    0.01282   1.00
H2       0.20346    0.33347    0.11675   1.00
H2       0.55431    0.57406    0.03973   1.00
H2       0.29898    0.45224    0.10424   1.00
H2       0.47240    0.50592    0.03415   1.00
H2       0.35271    0.41766    0.10090   1.00
H2       0.50246    0.52003    0.05942   1.00
H2       0.33787    0.45904    0.08045   1.00
H2       0.63843    0.47182    0.05057   1.00
H2       0.15190    0.32500    0.07347   1.00
H2       0.65135    0.55492    0.04786   1.00
H2       0.18135    0.39636    0.08960   1.00
H2       0.60506    0.50451    0.06877   1.00
H2       0.21645    0.40595    0.06514   1.00
C4       0.81477    0.64356    0.03397   1.00
C4       0.84250    0.69732    0.04860   1.00
C3       0.77216    0.64153    0.01776   1.00
C3       0.83553    0.75627    0.04684   1.00
C3       0.82960    0.58929    0.03539   1.00
C3       0.87883    0.69288    0.06573   1.00
C2       0.76139    0.53664    0.00380   1.00
C2       0.89566    0.80450    0.07868   1.00
C3       0.74650    0.58995    0.00307   1.00
C3       0.86095    0.80812    0.06145   1.00
C3       0.80278    0.53792    0.02005   1.00
C3       0.90360    0.74660    0.08032   1.00
H1       0.75761    0.67709    0.01615   1.00
H1       0.81231    0.76406    0.03476   1.00
C5       0.86983    0.58704    0.05185   1.00
C5       0.88997    0.63617    0.06789   1.00
H1       0.71628    0.59154    -0.00829   1.00
H1       0.85401    0.84918    0.05933   1.00
H1       0.81259    0.49875    0.02046   1.00
H1       0.92928    0.74504    0.09277   1.00
C6       0.89115    0.53343    0.05197   1.00
C6       0.92205    0.62849    0.08712   1.00
H2       0.90796    0.52943    0.03680   1.00
H2       0.89932    0.63928    0.10014   1.00
H2       0.93731    0.54967    0.06078   1.00
H2       0.90776    0.57566    0.08986   1.00
C6       0.83413    0.46247    0.06004   1.00
C6       1.00177    0.67337    0.08728   1.00
H2       0.78510    0.45025    0.05338   1.00
H2       1.01695    0.72445    0.08167   1.00
C6       0.84438    0.39973    0.05668   1.00
C6       1.03921    0.68137    0.10793   1.00
H2       0.82850    0.46761    0.07630   1.00
H2       1.02166    0.65189    0.07618   1.00
C6       0.84195    0.38204    0.03385   1.00
C6       1.02207    0.72153    0.12366   1.00
C6       0.91253    0.41195    0.06589   1.00
C6       1.02148    0.61129    0.11699   1.00
C6       0.78539    0.33683    0.06741   1.00
C6       1.11733    0.72233    0.10412   1.00
H2       0.79489    0.37420    0.02682   1.00
H2       1.03298    0.77086    0.11759   1.00
H2       0.88463    0.42250    0.02557   1.00
H2       0.96851    0.69357    0.12799   1.00
H2       0.84439    0.33550    0.03175   1.00
H2       1.05198    0.73094    0.13749   1.00
H2       0.91693    0.36620    0.06475   1.00
H2       1.05151    0.61752    0.13060   1.00
H2       0.95596    0.45278    0.05793   1.00
H2       0.96784    0.58218    0.12124   1.00
H2       0.91617    0.42590    0.08187   1.00
H2       1.03174    0.58138    0.10605   1.00
H2       0.73600    0.32553    0.06130   1.00
H2       1.13270    0.77268    0.09790   1.00
H2       0.79006    0.29148    0.06538   1.00
H2       1.14577    0.72966    0.11816   1.00
H2       0.78524    0.34566    0.08368   1.00
H2       1.13285    0.69585    0.09343   1.00
C4       -0.17719   0.18599    0.03619   1.00
C4       -0.15033   0.16096    0.05140   1.00
C3       -0.19619   0.15600    0.01655   1.00
C3       -0.14731   0.10006    0.04881   1.00
C3       -0.18562   0.24323    0.04050   1.00
C3       -0.12542   0.19751    0.07003   1.00
C2       -0.23462   0.23446    0.00575   1.00
C2       -0.09297   0.11208    0.08175   1.00
C3       -0.22435   0.17918    0.00181   1.00
C3       -0.11922   0.07644    0.06345   1.00
C3       -0.21484   0.26503    0.02511   1.00
C3       -0.09686   0.17195    0.08451   1.00
H1       -0.18964   0.11661    0.01216   1.00
H1       -0.16602   0.07020    0.03627   1.00
C5       -0.16476   0.27734    0.05970   1.00
C5       -0.12973   0.25759    0.07387   1.00
H1       -0.23725   0.15518    -0.01204   1.00
H1       -0.11829   0.03231    0.06063   1.00
H1       -0.22207   0.30525    0.02765   1.00
H1       -0.07820   0.19679    0.09787   1.00
C6       -0.18064   0.33310    0.06485   1.00
C6       -0.09665   0.29973    0.09267   1.00
H2       -0.23275   0.31695    0.06024   1.00
H2       -0.04644   0.30502    0.09463   1.00
H2       -0.18324   0.33878    0.08114   1.00
H2       -0.08379   0.35248    0.09067   1.00
C6       -0.12844   0.40400    0.05550   1.00
C6       -0.14154   0.27045    0.11220   1.00
H2       -0.11794   0.39718    0.03975   1.00
H2       -0.16294   0.21521    0.11277   1.00
C6       -0.14778   0.46140    0.05595   1.00
C6       -0.10683   0.30049    0.13314   1.00
H2       -0.07999   0.42265    0.06345   1.00
H2       -0.18539   0.27793    0.11064   1.00
C6       -0.21022   0.44355    0.04225   1.00
C6       -0.05069   0.28246    0.13806   1.00
C6       -0.16281   0.47542    0.07780   1.00
C6       -0.07556   0.37891    0.13390   1.00
C6       -0.08658   0.52819    0.04765   1.00
C6       -0.16187   0.26876    0.15001   1.00
H2       -0.20166   0.43227    0.02677   1.00
H2       -0.07090   0.22746    0.13733   1.00
H2       -0.25622   0.39934    0.04794   1.00
H2       -0.00820   0.30672    0.12748   1.00
H2       -0.22037   0.48581    0.04155   1.00
H2       -0.03012   0.29950    0.15327   1.00
H2       -0.17143   0.51871    0.07813   1.00
H2       -0.05585   0.39872    0.14900   1.00
H2       -0.20836   0.43145    0.08386   1.00
H2       -0.03330   0.40414    0.12325   1.00
H2       -0.12018   0.48672    0.08786   1.00
H2       -0.11371   0.39308    0.13007   1.00
H2       -0.07428   0.52126    0.03213   1.00
H2       -0.18513   0.21332    0.15027   1.00
H2       -0.09782   0.56979    0.04754   1.00
H2       -0.13996   0.28787    0.16498   1.00
H2       -0.04118   0.54424    0.05695   1.00
H2       -0.20232   0.28089    0.14760   1.00
C4       0.49517    0.96650    0.87061   1.00
C4       0.52116    1.01894    0.88566   1.00
C3       0.53505    0.93978    0.86227   1.00
C3       0.58609    1.04322    0.89495   1.00
C3       0.42683    0.93922    0.86343   1.00
C3       0.48136    1.04877    0.89187   1.00
C2       0.44159    0.85813    0.84091   1.00
C2       0.57522    1.12731    0.91537   1.00
C3       0.50909    0.88702    0.84795   1.00
C3       0.61255    1.09596    0.90927   1.00
C3       0.40221    0.88526    0.84891   1.00
C3       0.51032    1.10263    0.90642   1.00
H1       0.58467    0.95811    0.86615   1.00
H1       0.61631    1.02301    0.89180   1.00
C5       0.38516    0.96603    0.87063   1.00
C5       0.41443    1.02450    0.88369   1.00
H1       0.54037    0.86980    0.84259   1.00
H1       0.65982    1.11133    0.91535   1.00
H1       0.35374    0.86422    0.84355   1.00
H1       0.48377    1.12542    0.91111   1.00
C6       0.31079    0.93187    0.86455   1.00
C6       0.37592    1.06130    0.88875   1.00
H2       0.28854    0.87677    0.86566   1.00
H2       0.41069    1.11611    0.88774   1.00
H2       0.28067    0.94122    0.87556   1.00
H2       0.33866    1.05353    0.87713   1.00
C6       0.29949    0.95385    0.84301   1.00
C6       0.33923    1.04045    0.90985   1.00
H2       0.33665    0.95408    0.83237   1.00
H2       0.37363    1.03855    0.92113   1.00
C6       0.22706    0.91112    0.83327   1.00
C6       0.31084    1.08555    0.91868   1.00
H2       0.31161    1.00692    0.84399   1.00
H2       0.29698    0.98809    0.90860   1.00
C6       0.21021    0.83733    0.82831   1.00
C6       0.36906    1.15837    0.92400   1.00
C6       0.17071    0.90856    0.84719   1.00
C6       0.26061    1.09061    0.90380   1.00
C6       0.22591    0.94548    0.81300   1.00
C6       0.27157    1.05213    0.93858   1.00
H2       0.24966    0.83738    0.81877   1.00
H2       0.40603    1.15653    0.93424   1.00
H2       0.20603    0.80874    0.84204   1.00
H2       0.39625    1.18642    0.91049   1.00
H2       0.16177    0.80945    0.82027   1.00
H2       0.34913    1.18785    0.93143   1.00
H2       0.12114    0.88286    0.83966   1.00
H2       0.23742    1.11801    0.91066   1.00
H2       0.16618    0.88069    0.86112   1.00
H2       0.28675    1.11797    0.89006   1.00
H2       0.18209    0.95990    0.85125   1.00
H2       0.21986    1.03996    0.89947   1.00
H2       0.26439    0.94793    0.80251   1.00
H2       0.30500    1.04799    0.94972   1.00
H2       0.17638    0.91717    0.80554   1.00
H2       0.25110    1.08208    0.94541   1.00
H2       0.23611    0.99738    0.81555   1.00
H2       0.22887    1.00099    0.93574   1.00
C4       0.02357    0.51801    0.86746   1.00
C4       -0.03186   0.49224    0.88151   1.00
C3       0.07636    0.50132    0.86873   1.00
C3       -0.04227   0.44250    0.89646   1.00
C3       0.02725    0.56232    0.85145   1.00
C3       -0.07926   0.51648    0.88079   1.00
C2       0.13391    0.56741    0.83847   1.00
C2       -0.14200   0.44254    0.91058   1.00
C3       0.12970    0.52492    0.85464   1.00
C3       -0.09541   0.41858    0.91063   1.00
C3       0.08221    0.58495    0.83735   1.00
C3       -0.13246   0.49111    0.89556   1.00
H1       0.07840    0.47193    0.88007   1.00
H1       -0.01203   0.42127    0.89749   1.00
C5       -0.02283   0.58323    0.84989   1.00
C5       -0.07309   0.56442    0.86554   1.00
H1       0.16604    0.51081    0.85635   1.00
H1       -0.09999   0.38289    0.92108   1.00
H1       0.08630    0.61613    0.82568   1.00
H1       -0.16688   0.50748    0.89562   1.00
C6       -0.02246   0.62413    0.83167   1.00
C6       -0.11910   0.59507    0.86628   1.00
H2       -0.01410   0.60222    0.81801   1.00
H2       -0.12240   0.60904    0.88188   1.00
H2       -0.07264   0.61762    0.82880   1.00
H2       -0.09616   0.64429    0.85873   1.00
C6       0.03050    0.70217    0.83355   1.00
C6       -0.19146   0.54746    0.85697   1.00
H2       0.07881    0.70904    0.83931   1.00
H2       -0.21083   0.49523    0.86229   1.00
C6       0.04624    0.74685    0.81400   1.00
C6       -0.24796   0.56669    0.86092   1.00
H2       0.01218    0.72322    0.84527   1.00
H2       -0.18532   0.54551    0.84059   1.00
C6       0.08273    0.72731    0.79764   1.00
C6       -0.26772   0.56000    0.88368   1.00
C6       -0.01940   0.74112    0.80481   1.00
C6       -0.22542   0.63998    0.85361   1.00
C6       0.09480    0.82260    0.81979   1.00
C6       -0.31286   0.51656    0.84887   1.00
H2       0.12874    0.72976    0.80376   1.00
H2       -0.28283   0.50910    0.88939   1.00
H2       0.04978    0.67586    0.79195   1.00
H2       -0.22547   0.59687    0.89293   1.00
H2       0.09770    0.76176    0.78467   1.00
H2       -0.31034   0.56889    0.88607   1.00
H2       -0.00735   0.77611    0.79207   1.00
H2       -0.26688   0.65111    0.85509   1.00
H2       -0.05341   0.68973    0.79920   1.00
H2       -0.18266   0.67767    0.86256   1.00
H2       -0.04683   0.75324    0.81614   1.00
H2       -0.20985   0.64648    0.83773   1.00
H2       0.14238    0.82960    0.82618   1.00
H2       -0.33137   0.46397    0.85362   1.00
H2       0.10768    0.85587    0.80657   1.00
H2       -0.35404   0.52766    0.85125   1.00
H2       0.07132    0.83987    0.83101   1.00
H2       -0.30252   0.51988    0.83262   1.00
C4       0.48114    0.50405    0.86724   1.00
C4       0.50641    0.47400    0.88132   1.00
C3       0.50735    0.57577    0.86622   1.00
C3       0.56423    0.51381    0.89386   1.00
C3       0.42757    0.46153    0.85355   1.00
C3       0.47328    0.40142    0.88311   1.00
C2       0.43241    0.56517    0.83809   1.00
C2       0.55552    0.41338    0.91051   1.00
C3       0.48405    0.60555    0.85204   1.00
C3       0.58793    0.48457    0.90809   1.00
C3       0.40554    0.49390    0.83927   1.00
C3       0.49878    0.37366    0.89787   1.00
H1       0.54388    0.60901    0.87588   1.00
H1       0.59171    0.56554    0.89298   1.00
C5       0.39719    0.38879    0.85442   1.00
C5       0.41659    0.35859    0.87030   1.00
H1       0.50523    0.65762    0.85204   1.00
H1       0.62973    0.51610    0.91674   1.00
H1       0.36788    0.46542    0.82920   1.00
H1       0.47629    0.32231    0.89969   1.00
C6       0.34572    0.34494    0.83847   1.00
C6       0.37756    0.28231    0.87383   1.00
H2       0.36395    0.36806    0.82362   1.00
H2       0.36936    0.27250    0.89006   1.00
H2       0.34372    0.29627    0.83665   1.00
H2       0.32553    0.25927    0.86824   1.00
C6       0.27202    0.33165    0.84286   1.00
C6       0.41277    0.24451    0.86416   1.00
H2       0.27467    0.37917    0.84761   1.00
H2       0.46749    0.27315    0.86729   1.00
C6       0.21827    0.30021    0.82537   1.00
C6       0.38569    0.16866    0.87057   1.00
H2       0.25231    0.29792    0.85602   1.00
H2       0.40833    0.24619    0.84770   1.00
C6       0.23703    0.35004    0.80722   1.00
C6       0.40010    0.16286    0.89327   1.00
C6       0.21025    0.23184    0.81777   1.00
C6       0.30826    0.12360    0.86645   1.00
C6       0.14811    0.28589    0.83364   1.00
C6       0.42344    0.13995    0.85786   1.00
H2       0.24415    0.39924    0.81215   1.00
H2       0.45424    0.19499    0.89675   1.00
H2       0.28389    0.35910    0.79987   1.00
H2       0.37168    0.17829    0.90315   1.00
H2       0.19696    0.32966    0.79574   1.00
H2       0.38535    0.11047    0.89724   1.00
H2       0.16928    0.20796    0.80662   1.00
H2       0.29088    0.07004    0.86960   1.00
H2       0.25692    0.23973    0.81053   1.00
H2       0.27891    0.13870    0.87607   1.00
H2       0.19843    0.19631    0.83033   1.00
H2       0.29653    0.12788    0.85066   1.00
H2       0.15079    0.33277    0.83903   1.00
H2       0.47841    0.16961    0.86038   1.00
H2       0.10887    0.26426    0.82191   1.00
H2       0.40655    0.08709    0.86189   1.00
H2       0.13139    0.24987    0.84625   1.00
H2       0.41411    0.14139    0.84167   1.00
C4       0.29999    0.15952    0.29607   1.00
C4       0.35295    0.18535    0.28118   1.00
C3       0.25954    0.19034    0.29993   1.00
C3       0.36439    0.23919    0.26768   1.00
C3       0.28633    0.10073    0.30771   1.00
C3       0.39655    0.15677    0.27950   1.00
C2       0.19069    0.10538    0.32547   1.00
C2       0.46212    0.23988    0.25174   1.00
C3       0.20631    0.16400    0.31410   1.00
C3       0.41748    0.26594    0.25346   1.00
C3       0.23143    0.07529    0.32191   1.00
C3       0.45026    0.18573    0.26489   1.00
H1       0.26767    0.23349    0.29273   1.00
H1       0.33415    0.26055    0.26753   1.00
C5       0.32720    0.06920    0.30510   1.00
C5       0.38575    0.10059    0.29209   1.00
H1       0.17884    0.18843    0.31611   1.00
H1       0.42320    0.30497    0.24422   1.00
H1       0.21985    0.03332    0.33037   1.00
H1       0.48260    0.16710    0.26334   1.00
C6       0.30763    0.00292    0.31592   1.00
C6       0.43657    0.07568    0.29166   1.00
H2       0.25269    -0.03083   0.31472   1.00
H2       0.48805    0.11954    0.29171   1.00
H2       0.32680    -0.02626   0.30805   1.00
H2       0.43606    0.05043    0.30573   1.00
C6       0.33218    0.01323    0.33854   1.00
C6       0.42531    0.02659    0.27346   1.00
H2       0.32182    0.05052    0.34580   1.00
H2       0.41585    0.04711    0.25961   1.00
C6       0.30224    -0.05143   0.35245   1.00
C6       0.48316    0.00980    0.26883   1.00
H2       0.38768    0.03679    0.33847   1.00
H2       0.37815    -0.02131   0.27630   1.00
C6       0.22465    -0.08190   0.35602   1.00
C6       0.54930    0.07370    0.26145   1.00
C6       0.31525    -0.10716   0.34349   1.00
C6       0.49966    -0.02056   0.28759   1.00
C6       0.33802    -0.03028   0.37343   1.00
C6       0.45857    -0.04400   0.25157   1.00
H2       0.21364    -0.04348   0.36204   1.00
H2       0.53915    0.09702    0.24840   1.00
H2       0.19581    -0.10172   0.34203   1.00
H2       0.57176    0.11211    0.27332   1.00
H2       0.20522    -0.12399   0.36684   1.00
H2       0.58766    0.06055    0.25692   1.00
H2       0.29857    -0.14992   0.35397   1.00
H2       0.53649    -0.03658   0.28381   1.00
H2       0.28732    -0.12721   0.32935   1.00
H2       0.52161    0.01694    0.29975   1.00
H2       0.36939    -0.08663   0.34043   1.00
H2       0.45365    -0.06481   0.29336   1.00
H2       0.32980    0.00860    0.38053   1.00
H2       0.44689    -0.02478   0.23785   1.00
H2       0.31846    -0.07374   0.38375   1.00
H2       0.49752    -0.05708   0.24769   1.00
H2       0.39290    -0.00960   0.37196   1.00
H2       0.41269    -0.09093   0.25603   1.00
C4       0.86522    0.69898    0.29648   1.00
C4       0.84020    0.64709    0.28126   1.00
C3       0.91032    0.70273    0.31214   1.00
C3       0.86401    0.59980    0.27938   1.00
C3       0.84481    0.74940    0.29627   1.00
C3       0.78949    0.64159    0.26725   1.00
C2       0.91850    0.80583    0.32666   1.00
C2       0.78723    0.54004    0.25114   1.00
C3       0.93648    0.75466    0.32673   1.00
C3       0.83818    0.54766    0.26486   1.00
C3       0.87291    0.80165    0.31133   1.00
C3       0.76424    0.58754    0.25275   1.00
H1       0.92532    0.66748    0.31367   1.00
H1       0.90151    0.60189    0.28836   1.00
C5       0.79729    0.74661    0.28138   1.00
C5       0.76560    0.68949    0.26785   1.00
H1       0.96902    0.75467    0.33759   1.00
H1       0.85730    0.51502    0.26433   1.00
H1       0.85999    0.83867    0.31159   1.00
H1       0.72784    0.58168    0.24262   1.00
C6       0.78181    0.80425    0.28000   1.00
C6       0.70687    0.67873    0.25438   1.00
H2       0.82929    0.85272    0.28125   1.00
H2       0.66761    0.62507    0.25478   1.00
H2       0.76460    0.80804    0.26492   1.00
H2       0.67977    0.70294    0.26060   1.00
C6       0.72782    0.79843    0.29596   1.00
C6       0.72930    0.70450    0.23211   1.00
H2       0.73936    0.78472    0.31074   1.00
H2       0.76481    0.68848    0.22675   1.00
C6       0.71900    0.86216    0.29901   1.00
C6       0.67182    0.68264    0.21580   1.00
H2       0.67849    0.75528    0.29160   1.00
H2       0.75882    0.76016    0.23251   1.00
C6       0.78378    0.92298    0.30834   1.00
C6       0.63424    0.60464    0.21191   1.00
C6       0.70157    0.88503    0.27882   1.00
C6       0.61917    0.70405    0.22197   1.00
C6       0.65917    0.84288    0.31400   1.00
C6       0.70507    0.71871    0.19550   1.00
H2       0.79810    0.90817    0.32246   1.00
H2       0.67017    0.58770    0.20784   1.00
H2       0.82702    0.94195    0.29802   1.00
H2       0.60614    0.57611    0.22526   1.00
H2       0.77549    0.96546    0.31171   1.00
H2       0.59758    0.59056    0.19955   1.00
H2       0.69074    0.92632    0.28135   1.00
H2       0.58215    0.69297    0.20987   1.00
H2       0.74403    0.90359    0.26819   1.00
H2       0.59092    0.67651    0.23545   1.00
H2       0.65695    0.84272    0.27172   1.00
H2       0.64448    0.75855    0.22521   1.00
H2       0.66926    0.82700    0.32862   1.00
H2       0.74227    0.70473    0.19034   1.00
H2       0.65129    0.88600    0.31673   1.00
H2       0.66692    0.70467    0.18356   1.00
H2       0.61158    0.80103    0.30806   1.00
H2       0.73129    0.77406    0.19716   1.00
C4       0.83417    0.13500    0.29641   1.00
C4       0.80741    0.16016    0.28121   1.00
C3       0.79215    0.08729    0.31147   1.00
C3       0.73611    0.13411    0.27868   1.00
C3       0.90557    0.15795    0.29682   1.00
C3       0.85295    0.21332    0.26786   1.00
C2       0.88769    0.08154    0.32656   1.00
C2       0.75338    0.21328    0.25112   1.00
C3       0.81791    0.06105    0.32604   1.00
C3       0.70981    0.16001    0.26417   1.00
C3       0.92971    0.12969    0.31184   1.00
C3       0.82412    0.23853    0.25337   1.00
H1       0.74136    0.07034    0.31255   1.00
H1       0.70057    0.09489    0.28715   1.00
C5       0.95086    0.20808    0.28259   1.00
C5       0.92508    0.23961    0.26911   1.00
H1       0.78489    0.02657    0.33644   1.00
H1       0.65789    0.13921    0.26317   1.00
H1       0.98007    0.14439    0.31253   1.00
H1       0.85487    0.27662    0.24371   1.00
C6       1.02495    0.22645    0.28181   1.00
C6       0.97304    0.30067    0.25640   1.00
H2       1.02785    0.17992    0.28273   1.00
H2       0.95662    0.33840    0.25697   1.00
H2       1.04734    0.24597    0.26700   1.00
H2       1.02351    0.32857    0.26315   1.00
C6       1.06997    0.27935    0.29845   1.00
C6       0.97992    0.28155    0.23401   1.00
H2       1.04304    0.26523    0.31297   1.00
H2       0.92948    0.24531    0.22805   1.00
C6       1.14326    0.29065    0.30205   1.00
C6       1.01565    0.34120    0.21836   1.00
H2       1.07466    0.32836    0.29448   1.00
H2       1.00781    0.25374    0.23438   1.00
C6       1.14094    0.22603    0.31089   1.00
C6       0.97324    0.37670    0.21446   1.00
C6       1.18591    0.31181    0.28227   1.00
C6       1.08825    0.39505    0.22539   1.00
C6       1.18037    0.34906    0.31772   1.00
C6       1.02224    0.31124    0.19785   1.00
H2       1.11024    0.20911    0.32471   1.00
H2       0.92130    0.33984    0.20979   1.00
H2       1.11920    0.18398    0.30011   1.00
H2       0.97010    0.40257    0.22799   1.00
H2       1.19200    0.23587    0.31466   1.00
H2       0.99610    0.41498    0.20252   1.00
H2       1.23833    0.32428    0.28523   1.00
H2       1.11450    0.43378    0.21374   1.00
H2       1.16455    0.27057    0.27119   1.00
H2       1.08624    0.42108    0.23905   1.00
H2       1.18716    0.35638    0.27550   1.00
H2       1.11874    0.37114    0.22865   1.00
H2       1.15266    0.33635    0.33208   1.00
H2       0.97220    0.27334    0.19209   1.00
H2       1.23176    0.35858    0.32085   1.00
H2       1.04655    0.35098    0.18635   1.00
H2       1.18486    0.39653    0.31216   1.00
H2       1.05289    0.28663    0.19952   1.00
C4       0.83117    0.68920    0.79962   1.00
C4       0.80343    0.63402    0.78546   1.00
C3       0.79922    0.72833    0.80391   1.00
C3       0.73839    0.60956    0.77624   1.00
C3       0.89326    0.70669    0.81000   1.00
C3       0.84144    0.60138    0.78018   1.00
C2       0.88543    0.79863    0.82898   1.00
C2       0.74874    0.52465    0.75608   1.00
C3       0.82523    0.78117    0.81821   1.00
C3       0.71192    0.55679    0.76192   1.00
C3       0.91786    0.76061    0.82453   1.00
C3       0.81283    0.54807    0.76544   1.00
H1       0.75620    0.72035    0.79667   1.00
H1       0.70751    0.62872    0.77973   1.00
C5       0.92927    0.67101    0.80569   1.00
C5       0.90594    0.62184    0.78960   1.00
H1       0.79962    0.80728    0.82067   1.00
H1       0.66481    0.54169    0.75576   1.00
H1       0.96159    0.77423    0.83231   1.00
H1       0.83853    0.52394    0.76119   1.00
C6       0.99085    0.68512    0.81831   1.00
C6       0.94884    0.59192    0.78229   1.00
H2       0.97971    0.68791    0.83424   1.00
H2       0.94840    0.59089    0.76577   1.00
H2       0.99939    0.64197    0.81832   1.00
H2       1.00267    0.62564    0.78545   1.00
C6       1.05790    0.75048    0.81137   1.00
C6       0.92622    0.51985    0.79148   1.00
H2       1.04724    0.79177    0.80847   1.00
H2       0.87064    0.48858    0.79102   1.00
C6       1.12100    0.77860    0.82588   1.00
C6       0.95643    0.47760    0.78173   1.00
H2       1.07260    0.73943    0.79669   1.00
H2       0.93940    0.52667    0.80758   1.00
C6       1.10812    0.80582    0.84601   1.00
C6       0.93101    0.45618    0.75964   1.00
C6       1.14065    0.72367    0.83070   1.00
C6       1.03542    0.51760    0.78192   1.00
C6       1.18272    0.83912    0.81521   1.00
C6       0.93212    0.41142    0.79430   1.00
H2       1.09304    0.84394    0.84311   1.00
H2       0.87537    0.42877    0.75894   1.00
H2       1.06798    0.76498    0.85492   1.00
H2       0.94986    0.50024    0.74965   1.00
H2       1.15393    0.82957    0.85540   1.00
H2       0.94849    0.42285    0.75347   1.00
H2       1.18751    0.74511    0.83961   1.00
H2       1.05591    0.48597    0.77643   1.00
H2       1.10076    0.68195    0.83945   1.00
H2       1.05531    0.56235    0.77215   1.00
H2       1.14861    0.70263    0.81676   1.00
H2       1.05465    0.53453    0.79724   1.00
H2       1.17175    0.87977    0.81165   1.00
H2       0.87653    0.38085    0.79447   1.00
H2       1.22805    0.86085    0.82482   1.00
H2       0.95158    0.37989    0.78798   1.00
H2       1.19524    0.82281    0.80106   1.00
H2       0.94968    0.42318    0.80997   1.00
C4       0.30154    0.13432    0.79665   1.00
C4       0.35549    0.15750    0.78214   1.00
C3       0.24191    0.13907    0.79326   1.00
C3       0.35048    0.18035    0.76242   1.00
C3       0.30660    0.10522    0.81537   1.00
C3       0.41715    0.15810    0.78728   1.00
C2       0.19091    0.08441    0.82555   1.00
C2       0.46583    0.20753    0.75314   1.00
C3       0.18807    0.11461    0.80720   1.00
C3       0.40401    0.20494    0.74837   1.00
C3       0.25048    0.08057    0.82911   1.00
C3       0.47059    0.18389    0.77258   1.00
H1       0.23566    0.16110    0.78063   1.00
H1       0.30748    0.17934    0.75745   1.00
C5       0.36663    0.10167    0.82001   1.00
C5       0.42410    0.13305    0.80659   1.00
H1       0.14633    0.11930    0.80382   1.00
H1       0.39729    0.22094    0.73443   1.00
H1       0.25198    0.05914    0.84251   1.00
H1       0.51537    0.18557    0.77573   1.00
C6       0.36827    0.06427    0.83885   1.00
C6       0.49210    0.14072    0.81265   1.00
H2       0.32000    0.01661    0.84016   1.00
H2       0.53264    0.19168    0.80857   1.00
H2       0.40424    0.04601    0.83732   1.00
H2       0.49769    0.14123    0.82903   1.00
C6       0.38531    0.10825    0.85863   1.00
C6       0.50466    0.08409    0.80345   1.00
H2       0.35623    0.13489    0.85881   1.00
H2       0.48960    0.07631    0.78749   1.00
C6       0.37362    0.07063    0.87943   1.00
C6       0.57854    0.09516    0.80489   1.00
H2       0.43874    0.14841    0.85777   1.00
H2       0.46981    0.03601    0.81095   1.00
C6       0.29690    0.02004    0.88334   1.00
C6       0.62974    0.15665    0.79185   1.00
C6       0.41374    0.03187    0.88072   1.00
C6       0.60417    0.10584    0.82710   1.00
C6       0.39948    0.12460    0.89666   1.00
C6       0.57762    0.03055    0.79657   1.00
H2       0.26698    0.04563    0.88220   1.00
H2       0.61252    0.15119    0.77614   1.00
H2       0.27634    -0.02177   0.87247   1.00
H2       0.63610    0.20452    0.79764   1.00
H2       0.28883    -0.00237   0.89845   1.00
H2       0.67998    0.16105    0.79182   1.00
H2       0.40917    0.00993    0.89578   1.00
H2       0.65361    0.10862    0.82809   1.00
H2       0.39434    -0.00984   0.86981   1.00
H2       0.61023    0.15325    0.83325   1.00
H2       0.46773    0.06606    0.87761   1.00
H2       0.56828    0.06392    0.83669   1.00
H2       0.37221    0.15301    0.89656   1.00
H2       0.56052    0.02108    0.78081   1.00
H2       0.39197    0.10070    0.91154   1.00
H2       0.62830    0.03601    0.79713   1.00
H2       0.45379    0.16107    0.89498   1.00
H2       0.54335    -0.01448   0.80542   1.00
C4       0.86517    0.16615    0.79646   1.00
C4       0.84217    0.19682    0.78186   1.00
C3       0.85232    0.09807    0.79443   1.00
C3       0.81110    0.16430    0.76322   1.00
C3       0.90245    0.20422    0.81387   1.00
C3       0.85023    0.26256    0.78579   1.00
C2       0.91455    0.10520    0.82546   1.00
C2       0.79260    0.25731    0.75277   1.00
C3       0.87648    0.06853    0.80841   1.00
C3       0.78672    0.19335    0.74914   1.00
C3       0.92649    0.17240    0.82769   1.00
C3       0.82437    0.29022    0.77112   1.00
H1       0.82432    0.06715    0.78282   1.00
H1       0.80562    0.11857    0.75907   1.00
C5       0.91451    0.27197    0.81718   1.00
C5       0.88369    0.29905    0.80391   1.00
H1       0.86572    0.01930    0.80604   1.00
H1       0.76456    0.16718    0.73601   1.00
H1       0.95357    0.19800    0.84017   1.00
H1       0.82873    0.33663    0.77343   1.00
C6       0.96014    0.31423    0.83446   1.00
C6       0.88538    0.36515    0.80889   1.00
H2       1.00501    0.30831    0.83491   1.00
H2       0.83526    0.35905    0.80597   1.00
H2       0.98281    0.36854    0.83156   1.00
H2       0.89094    0.37552    0.82509   1.00
C6       0.92263    0.29719    0.85545   1.00
C6       0.94301    0.42827    0.79738   1.00
H2       0.89152    0.24190    0.85720   1.00
H2       0.94412    0.41486    0.78151   1.00
C6       0.96763    0.32624    0.87494   1.00
C6       0.94026    0.49598    0.79778   1.00
H2       0.88636    0.31565    0.85507   1.00
H2       0.99190    0.43872    0.80369   1.00
C6       1.01321    0.29395    0.87840   1.00
C6       0.87734    0.48856    0.78615   1.00
C6       1.01318    0.40484    0.87398   1.00
C6       0.93940    0.51969    0.81976   1.00
C6       0.91982    0.30838    0.89359   1.00
C6       1.00502    0.55265    0.78709   1.00
H2       0.98266    0.23836    0.87882   1.00
H2       0.87586    0.47079    0.77065   1.00
H2       1.05103    0.30800    0.86643   1.00
H2       0.82988    0.45243    0.79358   1.00
H2       1.04081    0.31094    0.89273   1.00
H2       0.87840    0.53721    0.78531   1.00
H2       1.04066    0.42504    0.88820   1.00
H2       0.94241    0.56934    0.81989   1.00
H2       1.05101    0.42000    0.86193   1.00
H2       0.89251    0.48380    0.82754   1.00
H2       0.98246    0.42878    0.87112   1.00
H2       0.98242    0.52395    0.82842   1.00
H2       0.88696    0.25327    0.89510   1.00
H2       1.00774    0.53873    0.77140   1.00
H2       0.94896    0.32726    0.90763   1.00
H2       1.00523    0.60096    0.78687   1.00
H2       0.88723    0.33096    0.89224   1.00
H2       1.05123    0.56127    0.79486   1.00
C4       0.02282    0.50378    0.36720   1.00
C4       -0.03112   0.47764    0.38177   1.00
C3       0.02834    0.46181    0.35209   1.00
C3       -0.08707   0.40959    0.38093   1.00
C3       0.07370    0.57444    0.36755   1.00
C3       -0.02995   0.52050    0.39788   1.00
C2       0.12998    0.55724    0.33711   1.00
C2       -0.13851   0.42368    0.41179   1.00
C3       0.08003    0.48767    0.33742   1.00
C3       -0.13901   0.38321    0.39552   1.00
C3       0.12529    0.59883    0.35228   1.00
C3       -0.08363   0.49156    0.41249   1.00
H1       -0.00461   0.41075    0.35129   1.00
H1       -0.09255   0.37685    0.36958   1.00
C5       0.07247    0.61863    0.38293   1.00
C5       0.02354    0.59030    0.39904   1.00
H1       0.08103    0.45479    0.32688   1.00
H1       -0.17781   0.33363    0.39411   1.00
H1       0.16208    0.64885    0.35195   1.00
H1       -0.08432   0.52028    0.42424   1.00
C6       0.12223    0.69454    0.38183   1.00
C6       0.02810    0.63288    0.41731   1.00
H2       0.12501    0.71164    0.36623   1.00
H2       0.01930    0.60264    0.43101   1.00
H2       0.10293    0.72367    0.38966   1.00
H2       0.07983    0.67447    0.41974   1.00
C6       0.19456    0.71513    0.39043   1.00
C6       -0.02113   0.66268    0.41603   1.00
H2       0.21019    0.67952    0.38486   1.00
H2       -0.07119   0.62316    0.41070   1.00
C6       0.25399    0.78919    0.38602   1.00
C6       -0.03204   0.69443    0.43578   1.00
H2       0.18981    0.70776    0.40685   1.00
H2       -0.00188   0.70166    0.40419   1.00
C6       0.27151    0.80051    0.36309   1.00
C6       -0.06947   0.63969    0.45241   1.00
C6       0.23684    0.84361    0.39364   1.00
C6       0.03640    0.75190    0.44438   1.00
C6       0.31871    0.80011    0.39742   1.00
C6       -0.07730   0.72595    0.43053   1.00
H2       0.28279    0.76217    0.35716   1.00
H2       -0.11752   0.59781    0.44670   1.00
H2       0.22954    0.79774    0.35427   1.00
H2       -0.03857   0.61831    0.45773   1.00
H2       0.31598    0.85058    0.36034   1.00
H2       -0.08104   0.66139    0.46556   1.00
H2       0.28039    0.89493    0.39182   1.00
H2       0.02787    0.77694    0.45727   1.00
H2       0.19444    0.84122    0.38513   1.00
H2       0.06840    0.73160    0.44961   1.00
H2       0.22291    0.83591    0.40966   1.00
H2       0.06446    0.79042    0.43283   1.00
H2       0.33347    0.76332    0.39243   1.00
H2       -0.12668   0.68725    0.42458   1.00
H2       0.36186    0.85110    0.39470   1.00
H2       -0.08677   0.74844    0.44391   1.00
H2       0.30999    0.79415    0.41376   1.00
H2       -0.05294   0.76601    0.41914   1.00
C4       0.48138    0.97694    0.36729   1.00
C4       0.50912    1.03072    0.38191   1.00
C3       0.43808    0.97444    0.35123   1.00
C3       0.50143    1.08927    0.38026   1.00
C3       0.49691    0.92311    0.36856   1.00
C3       0.54621    1.02671    0.39890   1.00
C2       0.42795    0.86998    0.33713   1.00
C2       0.56231    1.13793    0.41198   1.00
C3       0.41239    0.92284    0.33653   1.00
C3       0.52687    1.14113    0.39487   1.00
C3       0.47003    0.87172    0.35323   1.00
C3       0.57097    1.08043    0.41350   1.00
H1       0.42302    1.00964    0.34972   1.00
H1       0.47764    1.09675    0.36829   1.00
C5       0.53788    0.92133    0.38488   1.00
C5       0.55807    0.97043    0.40092   1.00
H1       0.38165    0.92408    0.32528   1.00
H1       0.51939    1.18189    0.39285   1.00
H1       0.48033    0.83286    0.35354   1.00
H1       0.59718    1.07917    0.42586   1.00
C6       0.55988    0.86824    0.38483   1.00
C6       0.59099    0.96316    0.42003   1.00
H2       0.57637    0.86442    0.36960   1.00
H2       0.56842    0.97367    0.43315   1.00
H2       0.60638    0.88490    0.39351   1.00
H2       0.57727    0.91046    0.42274   1.00
C6       0.50357    0.79707    0.39299   1.00
C6       0.67066    1.00866    0.41999   1.00
H2       0.45421    0.78438    0.38647   1.00
H2       0.68520    1.05962    0.41441   1.00
C6       0.51444    0.73477    0.38948   1.00
C6       0.70883    1.01704    0.44052   1.00
H2       0.49834    0.80213    0.40927   1.00
H2       0.69054    0.98749    0.40879   1.00
C6       0.51150    0.71712    0.36664   1.00
C6       0.69164    1.05682    0.45638   1.00
C6       0.58310    0.74766    0.39848   1.00
C6       0.69203    0.94716    0.44953   1.00
C6       0.45614    0.67159    0.40032   1.00
C6       0.78680    1.05861    0.43651   1.00
H2       0.46407    0.70881    0.35975   1.00
H2       0.70190    1.10599    0.45035   1.00
H2       0.55372    0.75780    0.35828   1.00
H2       0.63823    1.02844    0.46085   1.00
H2       0.51439    0.67086    0.36445   1.00
H2       0.72203    1.06652    0.47011   1.00
H2       0.58797    0.70221    0.39725   1.00
H2       0.72256    0.95370    0.46304   1.00
H2       0.62607    0.78873    0.39044   1.00
H2       0.63854    0.91764    0.45392   1.00
H2       0.58709    0.76160    0.41446   1.00
H2       0.70233    0.91751    0.43850   1.00
H2       0.40642    0.65981    0.39436   1.00
H2       0.80153    1.10884    0.43032   1.00
H2       0.46126    0.62654    0.39819   1.00
H2       0.81574    1.06623    0.45046   1.00
H2       0.45638    0.68039    0.41660   1.00
H2       0.80237    1.03243    0.42572   1.00
C4       0.49559    0.51864    0.36728   1.00
C4       0.52164    0.49089    0.38190   1.00
C3       0.53644    0.56208    0.35125   1.00
C3       0.58794    0.49873    0.38029   1.00
C3       0.42619    0.50296    0.36853   1.00
C3       0.48047    0.45364    0.39886   1.00
C2       0.44207    0.57207    0.33713   1.00
C2       0.57565    0.43769    0.41198   1.00
C3       0.51053    0.58777    0.33656   1.00
C3       0.61436    0.47329    0.39489   1.00
C3       0.40167    0.52984    0.35320   1.00
C3       0.50943    0.42888    0.41346   1.00
H1       0.58674    0.57724    0.34977   1.00
H1       0.61926    0.52264    0.36833   1.00
C5       0.38338    0.46184    0.38481   1.00
C5       0.41226    0.44163    0.40086   1.00
H1       0.54255    0.61862    0.32534   1.00
H1       0.66265    0.48088    0.39289   1.00
H1       0.35249    0.51945    0.35349   1.00
H1       0.48191    0.40257    0.42580   1.00
C6       0.30825    0.43969    0.38473   1.00
C6       0.37199    0.40854    0.41995   1.00
H2       0.28805    0.42327    0.36949   1.00
H2       0.40498    0.43108    0.43308   1.00
H2       0.27842    0.39312    0.39339   1.00
H2       0.33292    0.42214    0.42264   1.00
C6       0.29319    0.49585    0.39291   1.00
C6       0.33796    0.32888    0.41986   1.00
H2       0.32983    0.54528    0.38642   1.00
H2       0.37449    0.31448    0.41429   1.00
C6       0.21999    0.48485    0.38937   1.00
C6       0.30810    0.29056    0.44036   1.00
H2       0.30339    0.50100    0.40920   1.00
H2       0.29697    0.30900    0.40864   1.00
C6       0.20539    0.48789    0.36652   1.00
C6       0.36500    0.30775    0.45625   1.00
C6       0.16426    0.41609    0.39832   1.00
C6       0.25486    0.30716    0.44936   1.00
C6       0.21491    0.54301    0.40023   1.00
C6       0.27185    0.21261    0.43631   1.00
H2       0.24450    0.53541    0.35967   1.00
H2       0.40402    0.29764    0.45023   1.00
H2       0.20400    0.44577    0.35815   1.00
H2       0.38991    0.36114    0.46075   1.00
H2       0.15622    0.48492    0.36432   1.00
H2       0.34427    0.27727    0.46997   1.00
H2       0.11390    0.41111    0.39707   1.00
H2       0.23084    0.27653    0.46286   1.00
H2       0.16250    0.37321    0.39026   1.00
H2       0.27871    0.36061    0.45378   1.00
H2       0.17414    0.41203    0.41431   1.00
H2       0.21496    0.29685    0.43832   1.00
H2       0.25281    0.59279    0.39431   1.00
H2       0.30747    0.19802    0.43013   1.00
H2       0.16471    0.53780    0.39808   1.00
H2       0.25049    0.18357    0.45025   1.00
H2       0.22338    0.54268    0.41651   1.00
H2       0.23016    0.19704    0.42550   1.00
C4       0.16137    0.30990    0.20076   1.00
C4       0.19111    0.36532    0.21481   1.00
C3       0.09132    0.25836    0.20164   1.00
C3       0.15153    0.37705    0.22935   1.00
C3       0.20252    0.30496    0.18514   1.00
C3       0.26310    0.41134    0.21452   1.00
C2       0.10039    0.19964    0.17174   1.00
C2       0.25160    0.47539    0.24390   1.00
C3       0.06156    0.20506    0.18753   1.00
C3       0.18076    0.43016    0.24353   1.00
C3       0.17016    0.25010    0.17101   1.00
C3       0.29092    0.46455    0.22929   1.00
H1       0.05945    0.25723    0.21269   1.00
H1       0.09988    0.34785    0.23004   1.00
C5       0.27399    0.35370    0.18400   1.00
C5       0.30523    0.40384    0.19969   1.00
H1       0.01070    0.16965    0.18895   1.00
H1       0.14945    0.43572    0.25366   1.00
H1       0.19762    0.24513    0.15961   1.00
H1       0.34193    0.49801    0.22965   1.00
C6       0.31529    0.35211    0.16616   1.00
C6       0.38201    0.44831    0.20092   1.00
H2       0.28628    0.34444    0.15226   1.00
H2       0.39793    0.45123    0.21666   1.00
H2       0.35997    0.40173    0.16345   1.00
H2       0.40782    0.42428    0.19372   1.00
C6       0.33836    0.29771    0.16852   1.00
C6       0.40916    0.52094    0.19150   1.00
H2       0.29571    0.24994    0.17413   1.00
H2       0.37694    0.54153    0.19642   1.00
C6       0.36790    0.28086    0.14932   1.00
C6       0.48508    0.57609    0.19587   1.00
H2       0.37677    0.31522    0.18051   1.00
H2       0.40226    0.51488    0.17508   1.00
C6       0.31290    0.24538    0.13263   1.00
C6       0.49680    0.59585    0.21865   1.00
C6       0.42949    0.34566    0.14037   1.00
C6       0.53499    0.55177    0.18914   1.00
C6       0.39286    0.23087    0.15559   1.00
C6       0.50240    0.64143    0.18365   1.00
H2       0.26821    0.20000    0.13856   1.00
H2       0.46154    0.61221    0.22396   1.00
H2       0.29604    0.27929    0.12661   1.00
H2       0.48959    0.55320    0.22805   1.00
H2       0.33265    0.22960    0.11991   1.00
H2       0.54857    0.63760    0.22131   1.00
H2       0.45271    0.33275    0.12790   1.00
H2       0.58788    0.59232    0.19090   1.00
H2       0.41377    0.38062    0.13444   1.00
H2       0.52810    0.50860    0.19825   1.00
H2       0.46838    0.37240    0.15194   1.00
H2       0.52682    0.53618    0.17326   1.00
H2       0.35104    0.18381    0.16183   1.00
H2       0.46900    0.66117    0.18800   1.00
H2       0.41358    0.21718    0.14263   1.00
H2       0.55491    0.68171    0.18632   1.00
H2       0.43283    0.25357    0.16707   1.00
H2       0.49643    0.63107    0.16739   1.00
C4       0.69835    0.86575    0.20331   1.00
C4       0.64652    0.84114    0.21854   1.00
C3       0.69674    0.90249    0.18597   1.00
C3       0.59348    0.85762    0.21861   1.00
C3       0.75425    0.85355    0.20523   1.00
C3       0.64701    0.79843    0.23444   1.00
C2       0.80485    0.91846    0.17301   1.00
C2       0.53977    0.78868    0.24876   1.00
C3       0.74847    0.92838    0.17132   1.00
C3       0.54149    0.83198    0.23318   1.00
C3       0.80608    0.88111    0.19003   1.00
C3       0.59293    0.77307    0.24892   1.00
H1       0.65758    0.91123    0.18323   1.00
H1       0.59101    0.88943    0.20819   1.00
C5       0.75720    0.81443    0.22191   1.00
C5       0.70069    0.78240    0.23565   1.00
H1       0.74445    0.95469    0.15921   1.00
H1       0.50455    0.84557    0.23235   1.00
H1       0.84686    0.87390    0.19095   1.00
H1       0.59126    0.74219    0.26037   1.00
C6       0.82010    0.80811    0.22492   1.00
C6       0.69665    0.73140    0.25124   1.00
H2       0.86534    0.85783    0.22257   1.00
H2       0.64489    0.68804    0.25153   1.00
H2       0.82615    0.79790    0.24066   1.00
H2       0.72574    0.70740    0.24660   1.00
C6       0.82094    0.75201    0.21119   1.00
C6       0.72084    0.76313    0.27288   1.00
H2       0.80512    0.75580    0.19581   1.00
H2       0.69935    0.79568    0.27647   1.00
C6       0.88949    0.75112    0.20963   1.00
C6       0.70487    0.71283    0.29105   1.00
H2       0.78154    0.70235    0.21679   1.00
H2       0.77596    0.79749    0.27224   1.00
C6       0.94566    0.81563    0.19877   1.00
C6       0.62713    0.66933    0.29510   1.00
C6       0.91569    0.74494    0.23079   1.00
C6       0.73425    0.66488    0.28746   1.00
C6       0.87683    0.68821    0.19687   1.00
C6       0.73861    0.75521    0.31047   1.00
H2       0.92831    0.82206    0.18390   1.00
H2       0.60462    0.70170    0.29737   1.00
H2       0.96013    0.86157    0.20757   1.00
H2       0.60066    0.63507    0.28250   1.00
H2       0.99166    0.81234    0.19650   1.00
H2       0.61678    0.63790    0.30863   1.00
H2       0.96075    0.73945    0.22944   1.00
H2       0.72713    0.63343    0.30079   1.00
H2       0.92983    0.79022    0.23992   1.00
H2       0.70884    0.63058    0.27476   1.00
H2       0.87655    0.70069    0.23893   1.00
H2       0.78870    0.69422    0.28415   1.00
H2       0.85889    0.69042    0.18167   1.00
H2       0.71905    0.78952    0.31383   1.00
H2       0.92345    0.68560    0.19523   1.00
H2       0.72849    0.72227    0.32364   1.00
H2       0.83856    0.64087    0.20398   1.00
H2       0.79382    0.78605    0.30871   1.00
C4       0.13500    0.83418    0.20359   1.00
C4       0.16016    0.80742    0.21879   1.00
C3       0.08726    0.79215    0.18854   1.00
C3       0.13409    0.73612    0.22133   1.00
C3       0.15799    0.90559    0.20317   1.00
C3       0.21336    0.85296    0.23213   1.00
C2       0.08154    0.88769    0.17344   1.00
C2       0.21329    0.75339    0.24889   1.00
C3       0.06101    0.81791    0.17397   1.00
C3       0.15998    0.70982    0.23584   1.00
C3       0.12972    0.92973    0.18815   1.00
C3       0.23857    0.82413    0.24662   1.00
H1       0.07027    0.74135    0.18747   1.00
H1       0.09483    0.70058    0.21287   1.00
C5       0.20815    0.95088    0.21739   1.00
C5       0.23969    0.92510    0.23087   1.00
H1       0.02650    0.78488    0.16358   1.00
H1       0.13916    0.65789    0.23685   1.00
H1       0.14445    0.98009    0.18746   1.00
H1       0.27668    0.85488    0.25628   1.00
C6       0.22657    1.02499    0.21817   1.00
C6       0.30078    0.97306    0.24357   1.00
H2       0.18005    1.02791    0.21725   1.00
H2       0.33848    0.95660    0.24300   1.00
H2       0.24612    1.04739    0.23297   1.00
H2       0.32869    1.02351    0.23682   1.00
C6       0.27945    1.06996    0.20151   1.00
C6       0.28171    0.97999    0.26596   1.00
H2       0.26530    1.04300    0.18700   1.00
H2       0.24546    0.92957    0.27193   1.00
C6       0.29079    1.14326    0.19790   1.00
C6       0.34139    1.01571    0.28161   1.00
H2       0.32846    1.07462    0.20547   1.00
H2       0.25392    1.00790    0.26560   1.00
C6       0.22617    1.14096    0.18907   1.00
C6       0.37686    0.97327    0.28550   1.00
C6       0.31200    1.18594    0.21768   1.00
C6       0.39525    1.08829    0.27456   1.00
C6       0.34917    1.18032    0.18222   1.00
C6       0.31148    1.02236    0.30211   1.00
H2       0.20922    1.11023    0.17526   1.00
H2       0.33999    0.92136    0.29018   1.00
H2       0.18414    1.11925    0.19986   1.00
H2       0.40269    0.97009    0.27197   1.00
H2       0.23603    1.19202    0.18529   1.00
H2       0.41517    0.99614    0.29744   1.00
H2       0.32450    1.23836    0.21472   1.00
H2       0.43401    1.11454    0.28621   1.00
H2       0.27078    1.16462    0.22876   1.00
H2       0.42125    1.08624    0.26089   1.00
H2       0.35657    1.18717    0.22444   1.00
H2       0.37137    1.11881    0.27130   1.00
H2       0.33643    1.15258    0.16787   1.00
H2       0.27357    0.97234    0.30788   1.00
H2       0.35871    1.23171    0.17909   1.00
H2       0.35124    1.04667    0.31360   1.00
H2       0.39665    1.18478    0.18777   1.00
H2       0.28689    1.05304    0.30044   1.00
C4       0.97729    0.49656    0.63284   1.00
C4       1.03254    0.52675    0.61874   1.00
C3       0.93486    0.42459    0.63483   1.00
C3       1.05369    0.48736    0.60720   1.00
C3       0.96311    0.53918    0.64553   1.00
C3       1.06868    0.59904    0.61589   1.00
C2       0.86763    0.43541    0.66204   1.00
C2       1.14210    0.58739    0.58949   1.00
C3       0.88190    0.39483    0.64905   1.00
C3       1.10655    0.51659    0.59294   1.00
C3       0.90895    0.50684    0.65989   1.00
C3       1.12196    0.62676    0.60113   1.00
H1       0.94041    0.39110    0.62589   1.00
H1       1.03192    0.43602    0.60887   1.00
C5       1.00223    0.61197    0.64363   1.00
C5       1.05160    0.64164    0.62767   1.00
H1       0.85333    0.34259    0.64979   1.00
H1       1.11917    0.48536    0.58505   1.00
H1       0.89762    0.53543    0.66927   1.00
H1       1.14852    0.67788    0.59858   1.00
C6       0.99148    0.65646    0.65859   1.00
C6       1.08527    0.71708    0.62299   1.00
H2       0.98770    0.63626    0.67383   1.00
H2       1.08651    0.72398    0.60660   1.00
H2       1.03650    0.70671    0.65990   1.00
H2       1.05394    0.73842    0.62781   1.00
C6       0.92852    0.66478    0.65332   1.00
C6       1.15798    0.75977    0.63262   1.00
H2       0.88532    0.61527    0.64909   1.00
H2       1.18665    0.73324    0.63034   1.00
C6       0.90340    0.69662    0.66992   1.00
C6       1.20357    0.83504    0.62520   1.00
H2       0.94102    0.69607    0.63966   1.00
H2       1.15160    0.76047    0.64903   1.00
C6       0.87428    0.64951    0.68873   1.00
C6       1.22429    0.83819    0.60262   1.00
C6       0.96120    0.76770    0.67675   1.00
C6       1.16741    0.87721    0.62807   1.00
C6       0.84512    0.70557    0.66082   1.00
C6       1.27006    0.86904    0.63798   1.00
H2       0.83407    0.59854    0.68437   1.00
H2       1.24898    0.80797    0.60002   1.00
H2       0.91368    0.64436    0.69664   1.00
H2       1.18021    0.81890    0.59262   1.00
H2       0.85262    0.66985    0.69959   1.00
H2       1.25983    0.89050    0.59799   1.00
H2       0.94200    0.79152    0.68723   1.00
H2       1.20138    0.93070    0.62421   1.00
H2       1.00153    0.76370    0.68453   1.00
H2       1.12269    0.85824    0.61832   1.00
H2       0.98357    0.80144    0.66373   1.00
H2       1.15101    0.87467    0.64376   1.00
H2       0.80257    0.65662    0.65593   1.00
H2       1.29800    0.84158    0.63632   1.00
H2       0.82552    0.72729    0.67191   1.00
H2       1.30387    0.92170    0.63326   1.00
H2       0.86290    0.73950    0.64770   1.00
H2       1.25887    0.86964    0.65406   1.00
C4       0.51883    0.02294    0.63276   1.00
C4       0.49355    -0.03239   0.61868   1.00
C3       0.49290    0.06869    0.63370   1.00
C3       0.43595    -0.05014   0.60606   1.00
C3       0.57214    0.03375    0.64652   1.00
C3       0.52642    -0.07209   0.61697   1.00
C2       0.56758    0.13281    0.66189   1.00
C2       0.44441    -0.14213   0.58949   1.00
C3       0.51620    0.12177    0.64787   1.00
C3       0.41225    -0.10309   0.59183   1.00
C3       0.59418    0.08817    0.66080   1.00
C3       0.50093    -0.12535   0.60221   1.00
H1       0.45658    0.06558    0.62398   1.00
H1       0.40865    -0.02571   0.60687   1.00
C5       0.60224    -0.00887   0.64573   1.00
C5       0.58286    -0.05848   0.62986   1.00
H1       0.49523    0.15284    0.64782   1.00
H1       0.37062    -0.11317   0.58312   1.00
H1       0.63165    0.09717    0.67092   1.00
H1       0.52324    -0.15440   0.60045   1.00
C6       0.65340    -0.00149   0.66176   1.00
C6       0.62166    -0.09602   0.62641   1.00
H2       0.63503    0.00350    0.67658   1.00
H2       0.63005    -0.09767   0.61020   1.00
H2       0.65514    -0.04829   0.66361   1.00
H2       0.67362    -0.06722   0.63207   1.00
C6       0.72728    0.05871    0.65744   1.00
C6       0.58604    -0.16904   0.63608   1.00
H2       0.72492    0.10371    0.65265   1.00
H2       0.53137    -0.19492   0.63289   1.00
C6       0.78076    0.08079    0.67500   1.00
C6       0.61290    -0.21806   0.62976   1.00
H2       0.74705    0.04455    0.64433   1.00
H2       0.59028    -0.16294   0.65255   1.00
C6       0.76195    0.11203    0.69309   1.00
C6       0.59874    -0.23825   0.60705   1.00
C6       0.78836    0.02026    0.68266   1.00
C6       0.69024    -0.18600   0.63397   1.00
C6       0.85114    0.13643    0.66680   1.00
C6       0.57474    -0.28450   0.64246   1.00
H2       0.75512    0.15424    0.68812   1.00
H2       0.54467    -0.26004   0.60351   1.00
H2       0.71491    0.07435    0.70040   1.00
H2       0.62744    -0.19442   0.59718   1.00
H2       0.80185    0.13156    0.70463   1.00
H2       0.61333    -0.27604   0.60314   1.00
H2       0.82915    0.03718    0.69386   1.00
H2       0.70744    -0.22236   0.63088   1.00
H2       0.74151    -0.01839   0.68986   1.00
H2       0.71987    -0.14158   0.62437   1.00
H2       0.80020    -0.00357   0.67013   1.00
H2       0.70181    -0.17001   0.64977   1.00
H2       0.84876    0.18076    0.66138   1.00
H2       0.51981    -0.30961   0.63987   1.00
H2       0.89020    0.15388    0.67858   1.00
H2       0.59146    -0.32065   0.63848   1.00
H2       0.86789    0.11701    0.65423   1.00
H2       0.58388    -0.27376   0.65865   1.00
C4       0.50408    0.48116    0.63276   1.00
C4       0.47403    0.50643    0.61868   1.00
C3       0.57578    0.50721    0.63374   1.00
C3       0.51386    0.56413    0.60610   1.00
C3       0.46157    0.42773    0.64649   1.00
C3       0.40145    0.47344    0.61693   1.00
C2       0.56520    0.43242    0.66190   1.00
C2       0.41342    0.55556    0.58949   1.00
C3       0.60555    0.48391    0.64791   1.00
C3       0.48462    0.58783    0.59186   1.00
C3       0.49394    0.40569    0.66077   1.00
C3       0.37369    0.49894    0.60217   1.00
H1       0.60900    0.54363    0.62405   1.00
H1       0.56560    0.59152    0.60694   1.00
C5       0.38883    0.39750    0.64566   1.00
C5       0.35862    0.41689    0.62979   1.00
H1       0.65761    0.50498    0.64789   1.00
H1       0.51615    0.62954    0.58319   1.00
H1       0.46547    0.36814    0.67086   1.00
H1       0.32233    0.47655    0.60038   1.00
C6       0.34502    0.34620    0.66165   1.00
C6       0.28231    0.37798    0.62630   1.00
H2       0.36828    0.36450    0.67649   1.00
H2       0.27237    0.36968    0.61008   1.00
H2       0.29642    0.34434    0.66349   1.00
H2       0.25920    0.32599    0.63193   1.00
C6       0.33152    0.27240    0.65730   1.00
C6       0.24473    0.41342    0.63597   1.00
H2       0.37896    0.27489    0.65253   1.00
H2       0.27345    0.46812    0.63281   1.00
C6       0.30011    0.21880    0.67483   1.00
C6       0.16886    0.38645    0.62961   1.00
H2       0.29769    0.25266    0.64417   1.00
H2       0.24651    0.40909    0.65244   1.00
C6       0.35006    0.23758    0.69295   1.00
C6       0.16293    0.40073    0.60690   1.00
C6       0.23186    0.21100    0.68246   1.00
C6       0.12368    0.30907    0.63378   1.00
C6       0.28556    0.14852    0.66660   1.00
C6       0.14039    0.42443    0.64232   1.00
H2       0.39917    0.24455    0.68800   1.00
H2       0.19514    0.45483    0.60339   1.00
H2       0.35928    0.28454    0.70028   1.00
H2       0.17820    0.37216    0.59703   1.00
H2       0.32968    0.19761    0.70446   1.00
H2       0.11055    0.38607    0.60297   1.00
H2       0.20799    0.17014    0.69364   1.00
H2       0.07012    0.29180    0.63066   1.00
H2       0.23993    0.25778    0.68968   1.00
H2       0.13861    0.27957    0.62417   1.00
H2       0.19626    0.19918    0.66992   1.00
H2       0.12803    0.29743    0.64958   1.00
H2       0.33235    0.15104    0.66119   1.00
H2       0.17013    0.47938    0.63976   1.00
H2       0.26393    0.10937    0.67835   1.00
H2       0.08752    0.40763    0.63832   1.00
H2       0.24945    0.13178    0.65401   1.00
H2       0.14192    0.41520    0.65850   1.00
C4       0.50761    0.03322    0.12944   1.00
C4       0.47865    -0.01893   0.11434   1.00
C3       0.56940    0.05000    0.13973   1.00
C3       0.51295    -0.05291   0.10695   1.00
C3       0.47414    0.07048    0.13468   1.00
C3       0.41296    -0.03842   0.10611   1.00
C2       0.56799    0.14093    0.15927   1.00
C2       0.41871    -0.12671   0.08452   1.00
C3       0.59895    0.10240    0.15412   1.00
C3       0.48386    -0.10540   0.09257   1.00
C3       0.50611    0.12372    0.14933   1.00
C3       0.38497    -0.09237   0.09158   1.00
H1       0.59491    0.02431    0.13729   1.00
H1       0.56065    -0.04033   0.11159   1.00
C5       0.41033    0.05399    0.12546   1.00
C5       0.37720    -0.00410   0.11233   1.00
H1       0.64372    0.11217    0.16093   1.00
H1       0.51111    -0.12807   0.08793   1.00
H1       0.48411    0.15166    0.15335   1.00
H1       0.33819    -0.10799   0.08548   1.00
C6       0.37922    0.09848    0.12952   1.00
C6       0.30483    -0.03005   0.10514   1.00
H2       0.41909    0.15186    0.12874   1.00
H2       0.27643    -0.08548   0.10627   1.00
H2       0.34559    0.09537    0.11729   1.00
H2       0.27667    -0.01587   0.11551   1.00
C6       0.33921    0.08152    0.15008   1.00
C6       0.30082    -0.00521   0.08326   1.00
H2       0.36889    0.07475    0.16199   1.00
H2       0.33675    -0.01019   0.07333   1.00
C6       0.31799    0.13342    0.15803   1.00
C6       0.22961    -0.04055   0.07252   1.00
H2       0.29314    0.03178    0.14845   1.00
H2       0.31928    0.04948    0.08406   1.00
C6       0.38101    0.20270    0.16386   1.00
C6       0.20451    -0.11662   0.06783   1.00
C6       0.27472    0.14574    0.14220   1.00
C6       0.17516    -0.03536   0.08540   1.00
C6       0.27404    0.10348    0.17743   1.00
C6       0.23649    -0.00396   0.05201   1.00
H2       0.41324    0.19563    0.17478   1.00
H2       0.24236    -0.12210   0.05903   1.00
H2       0.41209    0.22865    0.15065   1.00
H2       0.19454    -0.14635   0.08168   1.00
H2       0.36562    0.23683    0.17069   1.00
H2       0.15722    -0.13952   0.05912   1.00
H2       0.25612    0.17811    0.14842   1.00
H2       0.12705    -0.05578   0.07717   1.00
H2       0.30477    0.17111    0.12875   1.00
H2       0.16492    -0.06428   0.09945   1.00
H2       0.23074    0.09759    0.13751   1.00
H2       0.19220    0.01761    0.08928   1.00
H2       0.30254    0.09447    0.18920   1.00
H2       0.27393    -0.00677   0.04222   1.00
H2       0.25831    0.13818    0.18364   1.00
H2       0.18804    -0.02717   0.04386   1.00
H2       0.22797    0.05509    0.17419   1.00
H2       0.25277    0.04976    0.05434   1.00
C4       0.97642    0.48200    0.13253   1.00
C4       1.02992    0.50959    0.11782   1.00
C3       0.97885    0.44674    0.15013   1.00
C3       1.09257    0.51018    0.12072   1.00
C3       0.91780    0.48938    0.12977   1.00
C3       1.02137    0.53797    0.09944   1.00
C2       0.86981    0.42910    0.16280   1.00
C2       1.13682    0.56233    0.08765   1.00
C3       0.92741    0.42135    0.16487   1.00
C3       1.14433    0.53540    0.10608   1.00
C3       0.86670    0.46312    0.14520   1.00
C3       1.07516    0.56280    0.08486   1.00
H1       1.01778    0.43758    0.15280   1.00
H1       1.10323    0.49293    0.13367   1.00
C5       0.91112    0.52186    0.11194   1.00
C5       0.96060    0.54141    0.09603   1.00
H1       0.93233    0.39664    0.17726   1.00
H1       1.18819    0.53413    0.10905   1.00
H1       0.82450    0.46779    0.14385   1.00
H1       1.07077    0.58293    0.07154   1.00
C6       0.85249    0.53577    0.11025   1.00
C6       0.94913    0.56483    0.07565   1.00
H2       0.84637    0.55557    0.12469   1.00
H2       0.96302    0.54089    0.06366   1.00
H2       0.86454    0.57815    0.10010   1.00
H2       0.89522    0.54474    0.07262   1.00
C6       0.78425    0.47210    0.10316   1.00
C6       0.98755    0.64438    0.07335   1.00
H2       0.77675    0.42685    0.11133   1.00
H2       1.03950    0.66595    0.07917   1.00
C6       0.71722    0.47568    0.10518   1.00
C6       0.99196    0.67414    0.05161   1.00
H2       0.79035    0.46255    0.08726   1.00
H2       0.96275    0.66388    0.08336   1.00
C6       0.69879    0.47823    0.12771   1.00
C6       1.03610    0.65790    0.03718   1.00
C6       0.72264    0.53805    0.09380   1.00
C6       0.92035    0.64702    0.04216   1.00
C6       0.65767    0.41026    0.09564   1.00
C6       1.02641    0.75293    0.05326   1.00
H2       0.69567    0.43543    0.13625   1.00
H2       1.08668    0.67543    0.04358   1.00
H2       0.73656    0.52514    0.13505   1.00
H2       1.01261    0.60338    0.03434   1.00
H2       0.64964    0.47593    0.12900   1.00
H2       1.04278    0.68282    0.02251   1.00
H2       0.67412    0.53738    0.09408   1.00
H2       0.92368    0.67175    0.02765   1.00
H2       0.76074    0.58560    0.10080   1.00
H2       0.89567    0.59232    0.03938   1.00
H2       0.73699    0.53825    0.07799   1.00
H2       0.88776    0.65653    0.05222   1.00
H2       0.65118    0.36462    0.10329   1.00
H2       1.07757    0.77479    0.05967   1.00
H2       0.60953    0.41017    0.09681   1.00
H2       1.03107    0.77617    0.03840   1.00
H2       0.66705    0.40626    0.07959   1.00
H2       0.99685    0.76768    0.06295   1.00
C4       0.51865    0.49561    0.13272   1.00
C4       0.49090    0.52166    0.11810   1.00
C3       0.56225    0.53651    0.14872   1.00
C3       0.49890    0.58804    0.11969   1.00
C3       0.50282    0.42616    0.13151   1.00
C3       0.45349    0.48043    0.10117   1.00
C2       0.57210    0.44209    0.16287   1.00
C2       0.43769    0.57567    0.08803   1.00
C3       0.58794    0.51060    0.16341   1.00
C3       0.47346    0.61446    0.10508   1.00
C3       0.52971    0.40164    0.14683   1.00
C3       0.42873    0.50938    0.08657   1.00
H1       0.57753    0.58684    0.15018   1.00
H1       0.52294    0.61942    0.13163   1.00
C5       0.46153    0.38329    0.11526   1.00
C5       0.44131    0.41215    0.09920   1.00
H1       0.61891    0.54266    0.17461   1.00
H1       0.48117    0.66280    0.10706   1.00
H1       0.51921    0.35243    0.14657   1.00
H1       0.40229    0.48182    0.07425   1.00
C6       0.43923    0.30812    0.11537   1.00
C6       0.40803    0.37179    0.08015   1.00
H2       0.42289    0.28804    0.13063   1.00
H2       0.43054    0.40467    0.06699   1.00
H2       0.39258    0.27832    0.10675   1.00
H2       0.42150    0.33262    0.07746   1.00
C6       0.49523    0.29286    0.10718   1.00
C6       0.32839    0.33791    0.08028   1.00
H2       0.54473    0.32947    0.11363   1.00
H2       0.31413    0.37455    0.08584   1.00
C6       0.48409    0.21962    0.11075   1.00
C6       0.28990    0.30798    0.05980   1.00
H2       0.50029    0.30295    0.09088   1.00
H2       0.30851    0.29699    0.09153   1.00
C6       0.48725    0.20515    0.13360   1.00
C6       0.30711    0.36479    0.04389   1.00
C6       0.41522    0.16393    0.10185   1.00
C6       0.30630    0.25457    0.05082   1.00
C6       0.54209    0.21432    0.09987   1.00
C6       0.21199    0.27190    0.06390   1.00
H2       0.53485    0.24423    0.14042   1.00
H2       0.29714    0.40392    0.04990   1.00
H2       0.44523    0.20391    0.14199   1.00
H2       0.36046    0.38958    0.03936   1.00
H2       0.48418    0.15593    0.13583   1.00
H2       0.27652    0.34403    0.03019   1.00
H2       0.41014    0.11353    0.10311   1.00
H2       0.27555    0.23051    0.03734   1.00
H2       0.37244    0.16233    0.10992   1.00
H2       0.35971    0.27830    0.04637   1.00
H2       0.41108    0.17373    0.08586   1.00
H2       0.29598    0.21472    0.06188   1.00
H2       0.59195    0.25219    0.10576   1.00
H2       0.19755    0.30763    0.07008   1.00
H2       0.53678    0.16409    0.10204   1.00
H2       0.18284    0.25049    0.04999   1.00
H2       0.54168    0.22270    0.08358   1.00
H2       0.19641    0.23026    0.07474   1.00
C4       0.70006    0.84019    0.70395   1.00
C4       0.64777    0.81095    0.71900   1.00
C3       0.72181    0.90556    0.69529   1.00
C3       0.61869    0.84781    0.72798   1.00
C3       0.73232    0.80334    0.69708   1.00
C3       0.62308    0.74231    0.72554   1.00
C2       0.80810    0.90083    0.67422   1.00
C2       0.53970    0.75077    0.74873   1.00
C3       0.77440    0.93521    0.68096   1.00
C3       0.56607    0.81865    0.74232   1.00
C3       0.78593    0.83550    0.68254   1.00
C3       0.56917    0.71438    0.74009   1.00
H1       0.69980    0.93380    0.69893   1.00
H1       0.63512    0.89745    0.72459   1.00
C5       0.71066    0.73612    0.70461   1.00
C5       0.65234    0.70360    0.71768   1.00
H1       0.78789    0.98263    0.67536   1.00
H1       0.54709    0.84785    0.74816   1.00
H1       0.81040    0.81110    0.67739   1.00
H1       0.54994    0.66560    0.74501   1.00
C6       0.75000    0.70075    0.69886   1.00
C6       0.62089    0.62886    0.72308   1.00
H2       0.80443    0.73711    0.69993   1.00
H2       0.56558    0.60471    0.72204   1.00
H2       0.74386    0.66291    0.71007   1.00
H2       0.63174    0.60098    0.71166   1.00
C6       0.73020    0.66603    0.67746   1.00
C6       0.64405    0.61676    0.74433   1.00
H2       0.72658    0.70060    0.66661   1.00
H2       0.64266    0.65199    0.75540   1.00
C6       0.77752    0.64127    0.66801   1.00
C6       0.60377    0.54318    0.75347   1.00
H2       0.67862    0.62227    0.67854   1.00
H2       0.69772    0.63114    0.74316   1.00
C6       0.84924    0.70197    0.66293   1.00
C6       0.52916    0.52284    0.75868   1.00
C6       0.78512    0.59106    0.68225   1.00
C6       0.60363    0.48943    0.73890   1.00
C6       0.74500    0.60335    0.64787   1.00
C6       0.63912    0.54167    0.77349   1.00
H2       0.84558    0.73895    0.65315   1.00
H2       0.52748    0.56040    0.76869   1.00
H2       0.87677    0.72847    0.67659   1.00
H2       0.50002    0.51877    0.74509   1.00
H2       0.88023    0.68460    0.65508   1.00
H2       0.50295    0.47351    0.76632   1.00
H2       0.81414    0.57037    0.67494   1.00
H2       0.57970    0.43915    0.74599   1.00
H2       0.81200    0.61649    0.69612   1.00
H2       0.57523    0.48507    0.72509   1.00
H2       0.73526    0.54854    0.68641   1.00
H2       0.65555    0.50330    0.73465   1.00
H2       0.73915    0.63686    0.63716   1.00
H2       0.63994    0.57831    0.78442   1.00
H2       0.77650    0.58543    0.64061   1.00
H2       0.61251    0.49131    0.78053   1.00
H2       0.69472    0.55905    0.65051   1.00
H2       0.69168    0.55427    0.77074   1.00
C4       0.13462    0.30118    0.70347   1.00
C4       0.15768    0.35496    0.71804   1.00
C3       0.14454    0.24425    0.70603   1.00
C3       0.18575    0.35210    0.73711   1.00
C3       0.10031    0.30363    0.68555   1.00
C3       0.15278    0.41419    0.71363   1.00
C2       0.08505    0.19074    0.67451   1.00
C2       0.20742    0.46512    0.74709   1.00
C3       0.12027    0.19049    0.69207   1.00
C3       0.21021    0.40557    0.75117   1.00
C3       0.07605    0.24767    0.67176   1.00
C3       0.17862    0.46768    0.72832   1.00
H1       0.17037    0.24004    0.71804   1.00
H1       0.18886    0.31077    0.74158   1.00
C5       0.09135    0.36101    0.68172   1.00
C5       0.12239    0.41876    0.69504   1.00
H1       0.12883    0.15076    0.69483   1.00
H1       0.23012    0.40050    0.76463   1.00
H1       0.05102    0.24734    0.65892   1.00
H1       0.17646    0.51080    0.72567   1.00
C6       0.04869    0.35956    0.66384   1.00
C6       0.12413    0.48460    0.68963   1.00
H2       0.00270    0.30965    0.66309   1.00
H2       0.17466    0.52737    0.69297   1.00
H2       0.02756    0.39283    0.66622   1.00
H2       0.12083    0.48977    0.67334   1.00
C6       0.08872    0.37888    0.64326   1.00
C6       0.06670    0.49266    0.70030   1.00
H2       0.11828    0.35286    0.64210   1.00
H2       0.06308    0.47786    0.71623   1.00
C6       0.04639    0.36457    0.62327   1.00
C6       0.07249    0.56447    0.69949   1.00
H2       0.12649    0.43319    0.64379   1.00
H2       0.01801    0.45553    0.69355   1.00
C6       -0.00111   0.28705    0.61966   1.00
C6       0.13498    0.61840    0.71163   1.00
C6       0.00322    0.40028    0.62338   1.00
C6       0.07702    0.58957    0.67738   1.00
C6       0.09663    0.39313    0.60510   1.00
C6       0.00759    0.55898    0.70931   1.00
H2       0.02770    0.26018    0.61983   1.00
H2       0.13387    0.60167    0.72724   1.00
H2       -0.04052   0.26439    0.63125   1.00
H2       0.18273    0.62794    0.70479   1.00
H2       -0.02682   0.27743    0.60502   1.00
H2       0.13590    0.66702    0.71216   1.00
H2       -0.02225   0.39406    0.60883   1.00
H2       0.07611    0.63729    0.67691   1.00
H2       -0.03616   0.37874    0.63503   1.00
H2       0.12423    0.59878    0.67019   1.00
H2       0.03526    0.45474    0.62631   1.00
H2       0.03434    0.55186    0.66838   1.00
H2       0.12794    0.36900    0.60420   1.00
H2       0.00235    0.54209    0.72506   1.00
H2       0.06939    0.38394    0.59073   1.00
H2       0.00945    0.60810    0.70923   1.00
H2       0.13070    0.44803    0.60656   1.00
H2       -0.03826   0.52261    0.70114   1.00
C4       0.16615    0.86518    0.70354   1.00
C4       0.19683    0.84217    0.71813   1.00
C3       0.09809    0.85236    0.70558   1.00
C3       0.16433    0.81114    0.73679   1.00
C3       0.20421    0.90241    0.68612   1.00
C3       0.26254    0.85018    0.71420   1.00
C2       0.10521    0.91455    0.67454   1.00
C2       0.25732    0.79260    0.74722   1.00
C3       0.06855    0.87653    0.69160   1.00
C3       0.19338    0.78677    0.75086   1.00
C3       0.17239    0.92645    0.67230   1.00
C3       0.29020    0.82433    0.72888   1.00
H1       0.06719    0.82440    0.71719   1.00
H1       0.11862    0.80570    0.74094   1.00
C5       0.27194    0.91442    0.68281   1.00
C5       0.29901    0.88360    0.69608   1.00
H1       0.01934    0.86580    0.69397   1.00
H1       0.16722    0.76464    0.76400   1.00
H1       0.19798    0.95351    0.65981   1.00
H1       0.33659    0.82865    0.72655   1.00
C6       0.31418    0.96001    0.66551   1.00
C6       0.36508    0.88524    0.69108   1.00
H2       0.30829    1.00490    0.66506   1.00
H2       0.35896    0.83511    0.69401   1.00
H2       0.36849    0.98266    0.66841   1.00
H2       0.37542    0.89077    0.67489   1.00
C6       0.29708    0.92246    0.64453   1.00
C6       0.42824    0.94286    0.70259   1.00
H2       0.24179    0.89137    0.64279   1.00
H2       0.41486    0.94402    0.71846   1.00
C6       0.32613    0.96743    0.62504   1.00
C6       0.49593    0.94007    0.70218   1.00
H2       0.31552    0.88617    0.64491   1.00
H2       0.43870    0.99176    0.69627   1.00
C6       0.29387    1.01303    0.62157   1.00
C6       0.48849    0.87716    0.71382   1.00
C6       0.40473    1.01294    0.62598   1.00
C6       0.51959    0.93915    0.68019   1.00
C6       0.30821    0.91958    0.60638   1.00
C6       0.55263    1.00484    0.71285   1.00
H2       0.23828    0.98251    0.62116   1.00
H2       0.47075    0.87572    0.72931   1.00
H2       0.30795    1.05088    0.63354   1.00
H2       0.45233    0.82969    0.70639   1.00
H2       0.31084    1.04060    0.60723   1.00
H2       0.53712    0.87819    0.71465   1.00
H2       0.42492    1.04039    0.61175   1.00
H2       0.56922    0.94214    0.68006   1.00
H2       0.41993    1.05079    0.63802   1.00
H2       0.48367    0.89226    0.67242   1.00
H2       0.42865    0.98220    0.62884   1.00
H2       0.52386    0.98217    0.67154   1.00
H2       0.25309    0.88674    0.60489   1.00
H2       0.53875    1.00759    0.72854   1.00
H2       0.32708    0.94868    0.59234   1.00
H2       0.60093    1.00501    0.71307   1.00
H2       0.33076    0.88696    0.60774   1.00
H2       0.56127    1.05104    0.70508   1.00
