data_IRMOF10_interpen_symm_ligand2lp_label_l.

_audit_creation_method             'generated by an auxiliary program of Tobunporous'

_symmetry_space_group_name_H-M     'P 1'
_symmetry_Int_Tables_number        1
_symmetry_cell_setting             triclinic

_cell_length_a                    22.6523
_cell_length_b                    22.6523
_cell_length_c                    65.9502
_cell_angle_alpha                 90.0000
_cell_angle_beta                  90.0000
_cell_angle_gamma                 120.0000

loop_
_atom_site_label
_atom_site_fract_x
_atom_site_fract_y
_atom_site_fract_z
_atom_site_occupancy
O1       0.00000    -0.00000   0.62500   1.00
Zn      0.00000    -0.00000   0.59589   1.00
Zn      0.94848    1.04288    0.63392   1.00
Zn      0.09439    0.05152    0.63392   1.00
Zn      -0.04288   0.90561    0.63392   1.00
O2       0.93860    0.02610    0.58587   1.00
O2       0.08750    0.06140    0.58587   1.00
O2       -0.02610   0.91250    0.58587   1.00
O2       0.91305    0.07161    0.61181   1.00
O2       0.00462    0.12022    0.65110   1.00
O2       0.87413    0.98074    0.65071   1.00
O2       0.15856    0.08695    0.61181   1.00
O2       0.10660    0.12587    0.65071   1.00
O2       0.11559    0.99538    0.65110   1.00
O2       -0.07161   0.84144    0.61181   1.00
O2       0.87978    0.88441    0.65110   1.00
O2       0.01926    0.89340    0.65071   1.00
C1       0.91390    0.06020    0.59358   1.00
C1       0.14630    0.08610    0.59358   1.00
C1       -0.06020   0.85370    0.59358   1.00
C1       0.06663    0.14397    0.65673   1.00
C1       0.85603    0.92267    0.65673   1.00
C1       0.07733    0.93337    0.65673   1.00
O1       -0.00000   0.00000    0.87500   1.00
Zn      -0.00000   0.00000    0.90411   1.00
Zn      1.04288    0.94848    0.86608   1.00
Zn      0.05152    0.09439    0.86608   1.00
Zn      0.90561    -0.04288   0.86608   1.00
O2       0.02610    0.93860    0.91413   1.00
O2       0.06140    0.08750    0.91413   1.00
O2       0.91250    -0.02610   0.91413   1.00
O2       0.07161    0.91305    0.88819   1.00
O2       0.12022    0.00462    0.84890   1.00
O2       0.98074    0.87413    0.84929   1.00
O2       0.08695    0.15856    0.88819   1.00
O2       0.12587    0.10660    0.84929   1.00
O2       0.99538    0.11559    0.84890   1.00
O2       0.84144    -0.07161   0.88819   1.00
O2       0.88441    0.87978    0.84890   1.00
O2       0.89340    0.01926    0.84929   1.00
C1       0.06020    0.91390    0.90642   1.00
C1       0.08610    0.14630    0.90642   1.00
C1       0.85370    -0.06020   0.90642   1.00
C1       0.14397    0.06663    0.84327   1.00
C1       0.92267    0.85603    0.84327   1.00
C1       0.93337    0.07733    0.84327   1.00
O1       0.00000    0.00000    0.37500   1.00
Zn      0.00000    0.00000    0.40411   1.00
Zn      0.05152    -0.04288   0.36608   1.00
Zn      0.90561    0.94848    0.36608   1.00
Zn      1.04288    0.09439    0.36608   1.00
O2       0.06140    -0.02610   0.41413   1.00
O2       0.91250    0.93860    0.41413   1.00
O2       0.02610    0.08750    0.41413   1.00
O2       0.08695    -0.07161   0.38819   1.00
O2       0.99538    0.87978    0.34890   1.00
O2       0.12587    0.01926    0.34929   1.00
O2       0.84144    0.91305    0.38819   1.00
O2       0.89340    0.87413    0.34929   1.00
O2       0.88441    0.00462    0.34890   1.00
O2       0.07161    0.15856    0.38819   1.00
O2       0.12022    0.11559    0.34890   1.00
O2       0.98074    0.10660    0.34929   1.00
C1       0.08610    -0.06020   0.40642   1.00
C1       0.85370    0.91390    0.40642   1.00
C1       0.06020    0.14630    0.40642   1.00
C1       0.93337    0.85603    0.34327   1.00
C1       0.14397    0.07733    0.34327   1.00
C1       0.92267    0.06663    0.34327   1.00
O1       0.00000    0.00000    0.12500   1.00
Zn      0.00000    0.00000    0.09589   1.00
Zn      -0.04288   0.05152    0.13392   1.00
Zn      0.94848    0.90561    0.13392   1.00
Zn      0.09439    1.04288    0.13392   1.00
O2       -0.02610   0.06140    0.08587   1.00
O2       0.93860    0.91250    0.08587   1.00
O2       0.08750    0.02610    0.08587   1.00
O2       -0.07161   0.08695    0.11181   1.00
O2       0.87978    0.99538    0.15110   1.00
O2       0.01926    0.12587    0.15071   1.00
O2       0.91305    0.84144    0.11181   1.00
O2       0.87413    0.89340    0.15071   1.00
O2       0.00462    0.88441    0.15110   1.00
O2       0.15856    0.07161    0.11181   1.00
O2       0.11559    0.12022    0.15110   1.00
O2       0.10660    0.98074    0.15071   1.00
C1       -0.06020   0.08610    0.09358   1.00
C1       0.91390    0.85370    0.09358   1.00
C1       0.14630    0.06020    0.09358   1.00
C1       0.85603    0.93337    0.15673   1.00
C1       0.07733    0.14397    0.15673   1.00
C1       0.06663    0.92267    0.15673   1.00
O1       0.66667    0.33333    0.95833   1.00
Zn      0.66667    0.33333    0.92922   1.00
Zn      0.61515    0.37621    0.96725   1.00
Zn      0.76106    0.38485    0.96725   1.00
Zn      -0.37621   0.23894    0.96725   1.00
O2       0.60527    0.35943    0.91920   1.00
O2       0.75417    0.39473    0.91920   1.00
O2       0.64057    0.24583    0.91920   1.00
O2       0.57972    0.40494    0.94514   1.00
O2       0.67129    0.45355    0.98443   1.00
O2       0.54080    0.31407    0.98404   1.00
O2       0.82523    0.42028    0.94514   1.00
O2       0.77327    0.45920    0.98404   1.00
O2       -0.21774   0.32871    0.98443   1.00
O2       0.59506    0.17477    0.94514   1.00
O2       0.54645    0.21774    0.98443   1.00
O2       -0.31407   0.22673    0.98404   1.00
C1       0.58057    0.39353    0.92691   1.00
C1       0.81297    0.41943    0.92691   1.00
C1       0.60647    0.18703    0.92691   1.00
C1       0.73330    0.47730    0.99006   1.00
C1       0.52270    0.25600    0.99006   1.00
C1       -0.25600   0.26670    0.99006   1.00
O1       0.66667    0.33333    0.20833   1.00
Zn      0.66667    0.33333    0.23744   1.00
Zn      0.70954    0.28182    0.19942   1.00
Zn      0.71818    0.42773    0.19942   1.00
Zn      0.57227    0.29046    0.19942   1.00
O2       0.69277    0.27193    0.24746   1.00
O2       0.72807    0.42083    0.24746   1.00
O2       0.57917    0.30723    0.24746   1.00
O2       0.73828    0.24638    0.22152   1.00
O2       0.78688    0.33796    0.18224   1.00
O2       0.64740    0.20747    0.18263   1.00
O2       0.75362    0.49189    0.22152   1.00
O2       0.79253    0.43994    0.18263   1.00
O2       0.66204    0.44893    0.18224   1.00
O2       0.50811    0.26172    0.22152   1.00
O2       0.55107    0.21312    0.18224   1.00
O2       0.56006    0.35260    0.18263   1.00
C1       0.72687    0.24723    0.23975   1.00
C1       0.75277    0.47963    0.23975   1.00
C1       0.52037    0.27313    0.23975   1.00
C1       0.81063    0.39997    0.17661   1.00
C1       0.58933    0.18937    0.17661   1.00
C1       0.60003    0.41067    0.17661   1.00
O1       0.66667    0.33333    0.70833   1.00
Zn      0.66667    0.33333    0.73744   1.00
Zn      0.71818    0.29046    0.69942   1.00
Zn      0.57227    0.28182    0.69942   1.00
Zn      0.70954    0.42773    0.69942   1.00
O2       0.72807    0.30723    0.74746   1.00
O2       0.57917    0.27193    0.74746   1.00
O2       0.69277    0.42083    0.74746   1.00
O2       0.75362    0.26172    0.72152   1.00
O2       0.66204    0.21312    0.68224   1.00
O2       0.79253    0.35260    0.68263   1.00
O2       0.50811    0.24638    0.72152   1.00
O2       0.56006    0.20747    0.68263   1.00
O2       0.55107    0.33796    0.68224   1.00
O2       0.73828    0.49189    0.72152   1.00
O2       0.78688    0.44893    0.68224   1.00
O2       0.64740    0.43994    0.68263   1.00
C1       0.75277    0.27313    0.73975   1.00
C1       0.52037    0.24723    0.73975   1.00
C1       0.72687    0.47963    0.73975   1.00
C1       0.60003    0.18937    0.67661   1.00
C1       0.81063    0.41067    0.67661   1.00
C1       0.58933    0.39997    0.67661   1.00
O1       0.66667    0.33333    0.45833   1.00
Zn      0.66667    0.33333    0.42922   1.00
Zn      -0.37621   0.38485    0.46725   1.00
Zn      0.61515    0.23894    0.46725   1.00
Zn      0.76106    0.37621    0.46725   1.00
O2       0.64057    0.39473    0.41920   1.00
O2       0.60527    0.24583    0.41920   1.00
O2       0.75417    0.35943    0.41920   1.00
O2       0.59506    0.42028    0.44514   1.00
O2       0.54645    0.32871    0.48443   1.00
O2       -0.31407   0.45920    0.48404   1.00
O2       0.57972    0.17477    0.44514   1.00
O2       0.54080    0.22673    0.48404   1.00
O2       0.67129    0.21774    0.48443   1.00
O2       0.82523    0.40494    0.44514   1.00
O2       -0.21774   0.45355    0.48443   1.00
O2       0.77327    0.31407    0.48404   1.00
C1       0.60647    0.41943    0.42691   1.00
C1       0.58057    0.18703    0.42691   1.00
C1       0.81297    0.39353    0.42691   1.00
C1       0.52270    0.26670    0.49006   1.00
C1       -0.25600   0.47730    0.49006   1.00
C1       0.73330    0.25600    0.49006   1.00
O1       0.33333    0.66667    0.29167   1.00
Zn      0.33333    0.66667    0.26256   1.00
Zn      0.28182    0.70954    0.30058   1.00
Zn      0.42773    0.71818    0.30058   1.00
Zn      0.29046    0.57227    0.30058   1.00
O2       0.27193    0.69277    0.25254   1.00
O2       0.42083    0.72807    0.25254   1.00
O2       0.30723    0.57917    0.25254   1.00
O2       0.24638    0.73828    0.27848   1.00
O2       0.33796    0.78688    0.31776   1.00
O2       0.20747    0.64740    0.31737   1.00
O2       0.49189    0.75362    0.27848   1.00
O2       0.43994    0.79253    0.31737   1.00
O2       0.44893    0.66204    0.31776   1.00
O2       0.26172    0.50811    0.27848   1.00
O2       0.21312    0.55107    0.31776   1.00
O2       0.35260    0.56006    0.31737   1.00
C1       0.24723    0.72687    0.26025   1.00
C1       0.47963    0.75277    0.26025   1.00
C1       0.27313    0.52037    0.26025   1.00
C1       0.39997    0.81063    0.32339   1.00
C1       0.18937    0.58933    0.32339   1.00
C1       0.41067    0.60003    0.32339   1.00
O1       0.33333    0.66667    0.54167   1.00
Zn      0.33333    0.66667    0.57078   1.00
Zn      0.37621    0.61515    0.53275   1.00
Zn      0.38485    0.76106    0.53275   1.00
Zn      0.23894    -0.37621   0.53275   1.00
O2       0.35943    0.60527    0.58080   1.00
O2       0.39473    0.75417    0.58080   1.00
O2       0.24583    0.64057    0.58080   1.00
O2       0.40494    0.57972    0.55486   1.00
O2       0.45355    0.67129    0.51557   1.00
O2       0.31407    0.54080    0.51596   1.00
O2       0.42028    0.82523    0.55486   1.00
O2       0.45920    0.77327    0.51596   1.00
O2       0.32871    -0.21774   0.51557   1.00
O2       0.17477    0.59506    0.55486   1.00
O2       0.21774    0.54645    0.51557   1.00
O2       0.22673    -0.31407   0.51596   1.00
C1       0.39353    0.58057    0.57309   1.00
C1       0.41943    0.81297    0.57309   1.00
C1       0.18703    0.60647    0.57309   1.00
C1       0.47730    0.73330    0.50994   1.00
C1       0.25600    0.52270    0.50994   1.00
C1       0.26670    -0.25600   0.50994   1.00
O1       0.33333    0.66667    0.04167   1.00
Zn      0.33333    0.66667    0.07078   1.00
Zn      0.38485    -0.37621   0.03275   1.00
Zn      0.23894    0.61515    0.03275   1.00
Zn      0.37621    0.76106    0.03275   1.00
O2       0.39473    0.64057    0.08080   1.00
O2       0.24583    0.60527    0.08080   1.00
O2       0.35943    0.75417    0.08080   1.00
O2       0.42028    0.59506    0.05486   1.00
O2       0.32871    0.54645    0.01557   1.00
O2       0.45920    -0.31407   0.01596   1.00
O2       0.17477    0.57972    0.05486   1.00
O2       0.22673    0.54080    0.01596   1.00
O2       0.21774    0.67129    0.01557   1.00
O2       0.40494    0.82523    0.05486   1.00
O2       0.45355    -0.21774   0.01557   1.00
O2       0.31407    0.77327    0.01596   1.00
C1       0.41943    0.60647    0.07309   1.00
C1       0.18703    0.58057    0.07309   1.00
C1       0.39353    0.81297    0.07309   1.00
C1       0.26670    0.52270    0.00994   1.00
C1       0.47730    -0.25600   0.00994   1.00
C1       0.25600    0.73330    0.00994   1.00
O1       0.33333    0.66667    0.79167   1.00
Zn      0.33333    0.66667    0.76256   1.00
Zn      0.29046    0.71818    0.80058   1.00
Zn      0.28182    0.57227    0.80058   1.00
Zn      0.42773    0.70954    0.80058   1.00
O2       0.30723    0.72807    0.75254   1.00
O2       0.27193    0.57917    0.75254   1.00
O2       0.42083    0.69277    0.75254   1.00
O2       0.26172    0.75362    0.77848   1.00
O2       0.21312    0.66204    0.81776   1.00
O2       0.35260    0.79253    0.81737   1.00
O2       0.24638    0.50811    0.77848   1.00
O2       0.20747    0.56006    0.81737   1.00
O2       0.33796    0.55107    0.81776   1.00
O2       0.49189    0.73828    0.77848   1.00
O2       0.44893    0.78688    0.81776   1.00
O2       0.43994    0.64740    0.81737   1.00
C1       0.27313    0.75277    0.76025   1.00
C1       0.24723    0.52037    0.76025   1.00
C1       0.47963    0.72687    0.76025   1.00
C1       0.18937    0.60003    0.82339   1.00
C1       0.41067    0.81063    0.82339   1.00
C1       0.39997    0.58933    0.82339   1.00
C2       -0.20009   0.54416    0.50270   1.00
C3       -0.17792   0.60927    0.49845   1.00
H1       -0.17816   0.62171    0.48502   1.00
C3       -0.20091   0.52674    0.52244   1.00
H1       -0.21719   0.48129    0.52578   1.00
C3a      -0.15475   0.65899    0.51315   1.00
H1       -0.13939   0.70454    0.51019   1.00
C3b      -0.17835   0.57487    0.53772   1.00
H1       -0.18004   0.56249    0.55124   1.00
C6       -0.15603   0.64181    0.53322   1.00
C6       -0.13273   0.69362    0.54953   1.00
C3c      -0.17762   0.71086    0.55829   1.00
H1       -0.22375   0.68625    0.55508   1.00
C3d      -0.06467   0.72488    0.55530   1.00
H1       -0.03303   0.71502    0.54960   1.00
C3       -0.15343   0.76183    0.57284   1.00
H1       -0.18369   0.77283    0.57901   1.00
C3       -0.04305   0.77843    0.57011   1.00
H1       0.00233    0.80139    0.57412   1.00
C2       -0.08630   0.79640    0.57845   1.00
C2       0.45584    0.25575    0.50270   1.00
C3       0.39073    0.21281    0.49845   1.00
H1       0.37829    0.20013    0.48502   1.00
C3       0.47326    0.27235    0.52244   1.00
H1       0.51871    0.30152    0.52578   1.00
C3a      0.34101    0.18626    0.51315   1.00
H1       0.29546    0.15606    0.51019   1.00
C3b      0.42513    0.24678    0.53772   1.00
H1       0.43751    0.25747    0.55124   1.00
C6       0.35819    0.20216    0.53322   1.00
C6       0.30638    0.17365    0.54953   1.00
C3c      0.28914    0.11152    0.55829   1.00
H1       0.31375    0.09000    0.55508   1.00
C3d      0.27512    0.21045    0.55530   1.00
H1       0.28498    0.25195    0.54960   1.00
C3       0.23817    0.08474    0.57284   1.00
H1       0.22717    0.04348    0.57901   1.00
C3       0.22157    0.17852    0.57011   1.00
H1       0.19861    0.20094    0.57412   1.00
C2       0.20360    0.11730    0.57845   1.00
C2       0.74425    0.20009    0.50270   1.00
C3       0.78719    0.17792    0.49845   1.00
H1       0.79987    0.17816    0.48502   1.00
C3       0.72765    0.20091    0.52244   1.00
H1       0.69848    0.21719    0.52578   1.00
C3a      0.81374    0.15475    0.51315   1.00
H1       0.84394    0.13939    0.51019   1.00
C3b      0.75322    0.17835    0.53772   1.00
H1       0.74253    0.18004    0.55124   1.00
C6       0.79784    0.15603    0.53322   1.00
C6       0.82635    0.13273    0.54953   1.00
C3c      0.88848    0.17762    0.55829   1.00
H1       0.91000    0.22375    0.55508   1.00
C3d      0.78955    0.06467    0.55530   1.00
H1       0.74805    0.03303    0.54960   1.00
C3       0.91526    0.15343    0.57284   1.00
H1       0.95652    0.18369    0.57901   1.00
C3       0.82148    0.04305    0.57011   1.00
H1       0.79906    0.99767    0.57412   1.00
C2       0.88270    0.08630    0.57845   1.00
C2       0.54416    -0.20009   0.99730   1.00
C3       0.60927    -0.17792   0.00155   1.00
H1       0.62171    -0.17816   0.01498   1.00
C3       0.52674    -0.20091   0.97756   1.00
H1       0.48129    -0.21719   0.97422   1.00
C3a      0.65899    -0.15475   0.98685   1.00
H1       0.70454    -0.13939   0.98981   1.00
C3b      0.57487    -0.17835   0.96228   1.00
H1       0.56249    -0.18004   0.94876   1.00
C6       0.64181    -0.15603   0.96678   1.00
C6       0.69362    -0.13273   0.95047   1.00
C3c      0.71086    -0.17762   0.94171   1.00
H1       0.68625    -0.22375   0.94492   1.00
C3d      0.72488    -0.06467   0.94470   1.00
H1       0.71502    -0.03303   0.95040   1.00
C3       0.76183    -0.15343   0.92716   1.00
H1       0.77283    -0.18369   0.92099   1.00
C3       0.77843    -0.04305   0.92989   1.00
H1       0.80139    0.00233    0.92588   1.00
C2       0.79640    -0.08630   0.92155   1.00
C2       0.25575    0.45584    0.99730   1.00
C3       0.21281    0.39073    0.00155   1.00
H1       0.20013    0.37829    0.01498   1.00
C3       0.27235    0.47326    0.97756   1.00
H1       0.30152    0.51871    0.97422   1.00
C3a      0.18626    0.34101    0.98685   1.00
H1       0.15606    0.29546    0.98981   1.00
C3b      0.24678    0.42513    0.96228   1.00
H1       0.25747    0.43751    0.94876   1.00
C6       0.20216    0.35819    0.96678   1.00
C6       0.17365    0.30638    0.95047   1.00
C3c      0.11152    0.28914    0.94171   1.00
H1       0.09000    0.31375    0.94492   1.00
C3d      0.21045    0.27512    0.94470   1.00
H1       0.25195    0.28498    0.95040   1.00
C3       0.08474    0.23817    0.92716   1.00
H1       0.04348    0.22717    0.92099   1.00
C3       0.17852    0.22157    0.92989   1.00
H1       0.20094    0.19861    0.92588   1.00
C2       0.11730    0.20360    0.92155   1.00
C2       0.20009    0.74425    0.99730   1.00
C3       0.17792    0.78719    0.00155   1.00
H1       0.17816    0.79987    0.01498   1.00
C3       0.20091    0.72765    0.97756   1.00
H1       0.21719    0.69848    0.97422   1.00
C3a      0.15475    0.81374    0.98685   1.00
H1       0.13939    0.84394    0.98981   1.00
C3b      0.17835    0.75322    0.96228   1.00
H1       0.18004    0.74253    0.94876   1.00
C6       0.15603    0.79784    0.96678   1.00
C6       0.13273    0.82635    0.95047   1.00
C3c      0.17762    0.88848    0.94171   1.00
H1       0.22375    0.91000    0.94492   1.00
C3d      0.06467    0.78955    0.94470   1.00
H1       0.03303    0.74805    0.95040   1.00
C3       0.15343    0.91526    0.92716   1.00
H1       0.18369    0.95652    0.92099   1.00
C3       0.04305    0.82148    0.92989   1.00
H1       0.99767    0.79906    0.92588   1.00
C2       0.08630    0.88270    0.92155   1.00
C2       0.20009    0.45584    0.49730   1.00
C3       0.17792    0.39073    0.50155   1.00
H1       0.17816    0.37829    0.51498   1.00
C3       0.20091    0.47326    0.47756   1.00
H1       0.21719    0.51871    0.47422   1.00
C3a      0.15475    0.34101    0.48685   1.00
H1       0.13939    0.29546    0.48981   1.00
C3b      0.17835    0.42513    0.46228   1.00
H1       0.18004    0.43751    0.44876   1.00
C6       0.15603    0.35819    0.46678   1.00
C6       0.13273    0.30638    0.45047   1.00
C3c      0.17762    0.28914    0.44171   1.00
H1       0.22375    0.31375    0.44492   1.00
C3d      0.06467    0.27512    0.44470   1.00
H1       0.03303    0.28498    0.45040   1.00
C3       0.15343    0.23817    0.42716   1.00
H1       0.18369    0.22717    0.42099   1.00
C3       0.04305    0.22157    0.42989   1.00
H1       0.99767    0.19861    0.42588   1.00
C2       0.08630    0.20360    0.42155   1.00
C2       0.54416    0.74425    0.49730   1.00
C3       0.60927    0.78719    0.50155   1.00
H1       0.62171    0.79987    0.51498   1.00
C3       0.52674    0.72765    0.47756   1.00
H1       0.48129    0.69848    0.47422   1.00
C3a      0.65899    0.81374    0.48685   1.00
H1       0.70454    0.84394    0.48981   1.00
C3b      0.57487    0.75322    0.46228   1.00
H1       0.56249    0.74253    0.44876   1.00
C6       0.64181    0.79784    0.46678   1.00
C6       0.69362    0.82635    0.45047   1.00
C3c      0.71086    0.88848    0.44171   1.00
H1       0.68625    0.91000    0.44492   1.00
C3d      0.72488    0.78955    0.44470   1.00
H1       0.71502    0.74805    0.45040   1.00
C3       0.76183    0.91526    0.42716   1.00
H1       0.77283    0.95652    0.42099   1.00
C3       0.77843    0.82148    0.42989   1.00
H1       0.80139    0.79906    0.42588   1.00
C2       0.79640    0.88270    0.42155   1.00
C2       0.25575    -0.20009   0.49730   1.00
C3       0.21281    -0.17792   0.50155   1.00
H1       0.20013    -0.17816   0.51498   1.00
C3       0.27235    -0.20091   0.47756   1.00
H1       0.30152    -0.21719   0.47422   1.00
C3a      0.18626    -0.15475   0.48685   1.00
H1       0.15606    -0.13939   0.48981   1.00
C3b      0.24678    -0.17835   0.46228   1.00
H1       0.25747    -0.18004   0.44876   1.00
C6       0.20216    -0.15603   0.46678   1.00
C6       0.17365    -0.13273   0.45047   1.00
C3c      0.11152    -0.17762   0.44171   1.00
H1       0.09000    -0.22375   0.44492   1.00
C3d      0.21045    -0.06467   0.44470   1.00
H1       0.25195    -0.03303   0.45040   1.00
C3       0.08474    -0.15343   0.42716   1.00
H1       0.04348    -0.18369   0.42099   1.00
C3       0.17852    -0.04305   0.42989   1.00
H1       0.20094    0.00233    0.42588   1.00
C2       0.11730    -0.08630   0.42155   1.00
C2       0.45584    0.20009    0.00270   1.00
C3       0.39073    0.17792    0.99845   1.00
H1       0.37829    0.17816    0.98502   1.00
C3       0.47326    0.20091    0.02244   1.00
H1       0.51871    0.21719    0.02578   1.00
C3a      0.34101    0.15475    0.01315   1.00
H1       0.29546    0.13939    0.01019   1.00
C3b      0.42513    0.17835    0.03772   1.00
H1       0.43751    0.18004    0.05124   1.00
C6       0.35819    0.15603    0.03322   1.00
C6       0.30638    0.13273    0.04953   1.00
C3c      0.28914    0.17762    0.05829   1.00
H1       0.31375    0.22375    0.05508   1.00
C3d      0.27512    0.06467    0.05530   1.00
H1       0.28498    0.03303    0.04960   1.00
C3       0.23817    0.15343    0.07284   1.00
H1       0.22717    0.18369    0.07901   1.00
C3       0.22157    0.04305    0.07011   1.00
H1       0.19861    0.99767    0.07412   1.00
C2       0.20360    0.08630    0.07845   1.00
C2       0.74425    0.54416    0.00270   1.00
C3       0.78719    0.60927    0.99845   1.00
H1       0.79987    0.62171    0.98502   1.00
C3       0.72765    0.52674    0.02244   1.00
H1       0.69848    0.48129    0.02578   1.00
C3a      0.81374    0.65899    0.01315   1.00
H1       0.84394    0.70454    0.01019   1.00
C3b      0.75322    0.57487    0.03772   1.00
H1       0.74253    0.56249    0.05124   1.00
C6       0.79784    0.64181    0.03322   1.00
C6       0.82635    0.69362    0.04953   1.00
C3c      0.88848    0.71086    0.05829   1.00
H1       0.91000    0.68625    0.05508   1.00
C3d      0.78955    0.72488    0.05530   1.00
H1       0.74805    0.71502    0.04960   1.00
C3       0.91526    0.76183    0.07284   1.00
H1       0.95652    0.77283    0.07901   1.00
C3       0.82148    0.77843    0.07011   1.00
H1       0.79906    0.80139    0.07412   1.00
C2       0.88270    0.79640    0.07845   1.00
C2       -0.20009   0.25575    0.00270   1.00
C3       -0.17792   0.21281    0.99845   1.00
H1       -0.17816   0.20013    0.98502   1.00
C3       -0.20091   0.27235    0.02244   1.00
H1       -0.21719   0.30152    0.02578   1.00
C3a      -0.15475   0.18626    0.01315   1.00
H1       -0.13939   0.15606    0.01019   1.00
C3b      -0.17835   0.24678    0.03772   1.00
H1       -0.18004   0.25747    0.05124   1.00
C6       -0.15603   0.20216    0.03322   1.00
C6       -0.13273   0.17365    0.04953   1.00
C3c      -0.17762   0.11152    0.05829   1.00
H1       -0.22375   0.09000    0.05508   1.00
C3d      -0.06467   0.21045    0.05530   1.00
H1       -0.03303   0.25195    0.04960   1.00
C3       -0.15343   0.08474    0.07284   1.00
H1       -0.18369   0.04348    0.07901   1.00
C3       -0.04305   0.17852    0.07011   1.00
H1       0.00233    0.20094    0.07412   1.00
C2       -0.08630   0.11730    0.07845   1.00
C2       0.46658    0.87749    0.83603   1.00
C3       0.48875    0.94260    0.83178   1.00
H1       0.48851    0.95504    0.81835   1.00
C3       0.46576    0.86007    0.85577   1.00
H1       0.44948    0.81462    0.85911   1.00
C3a      0.51192    0.99232    0.84648   1.00
H1       0.52728    1.03787    0.84352   1.00
C3b      0.48832    0.90820    0.87105   1.00
H1       0.48663    0.89582    0.88457   1.00
C6       0.51064    0.97514    0.86655   1.00
C6       0.53394    0.02695    0.88286   1.00
C3c      0.48905    0.04419    0.89162   1.00
H1       0.44292    0.01958    0.88841   1.00
C3d      0.60200    0.05821    0.88863   1.00
H1       0.63364    0.04835    0.88293   1.00
C3       0.51324    0.09516    0.90617   1.00
H1       0.48298    0.10616    0.91234   1.00
C3       0.62362    0.11176    0.90344   1.00
H1       0.66900    0.13472    0.90745   1.00
C2       0.58037    0.12973    0.91178   1.00
C2       0.12251    0.58908    0.83603   1.00
C3       0.05740    0.54614    0.83178   1.00
H1       0.04496    0.53346    0.81835   1.00
C3       0.13993    0.60568    0.85577   1.00
H1       0.18538    0.63485    0.85911   1.00
C3a      0.00768    0.51959    0.84648   1.00
H1       -0.03787   0.48939    0.84352   1.00
C3b      0.09180    0.58011    0.87105   1.00
H1       0.10418    0.59080    0.88457   1.00
C6       0.02486    0.53549    0.86655   1.00
C6       0.97305    0.50698    0.88286   1.00
C3c      0.95581    0.44485    0.89162   1.00
H1       0.98042    0.42333    0.88841   1.00
C3d      0.94179    0.54378    0.88863   1.00
H1       0.95165    0.58528    0.88293   1.00
C3       0.90484    0.41807    0.90617   1.00
H1       0.89384    0.37681    0.91234   1.00
C3       0.88824    0.51185    0.90344   1.00
H1       0.86528    0.53427    0.90745   1.00
C2       0.87027    0.45063    0.91178   1.00
C2       0.41092    0.53342    0.83603   1.00
C3       0.45386    0.51125    0.83178   1.00
H1       0.46654    0.51149    0.81835   1.00
C3       0.39432    0.53424    0.85577   1.00
H1       0.36515    0.55052    0.85911   1.00
C3a      0.48041    0.48808    0.84648   1.00
H1       0.51061    0.47272    0.84352   1.00
C3b      0.41989    0.51168    0.87105   1.00
H1       0.40920    0.51337    0.88457   1.00
C6       0.46451    0.48936    0.86655   1.00
C6       0.49302    0.46606    0.88286   1.00
C3c      0.55515    0.51095    0.89162   1.00
H1       0.57667    0.55708    0.88841   1.00
C3d      0.45622    0.39800    0.88863   1.00
H1       0.41472    0.36636    0.88293   1.00
C3       0.58193    0.48676    0.90617   1.00
H1       0.62319    0.51702    0.91234   1.00
C3       0.48815    0.37638    0.90344   1.00
H1       0.46573    0.33100    0.90745   1.00
C2       0.54937    0.41963    0.91178   1.00
C2       0.21083    0.13324    0.33063   1.00
C3       0.27594    0.15541    0.33488   1.00
H1       0.28838    0.15517    0.34831   1.00
C3       0.19341    0.13242    0.31089   1.00
H1       0.14796    0.11614    0.30755   1.00
C3a      0.32566    0.17858    0.32018   1.00
H1       0.37121    0.19394    0.32314   1.00
C3b      0.24154    0.15498    0.29561   1.00
H1       0.22916    0.15329    0.28209   1.00
C6       0.30848    0.17730    0.30011   1.00
C6       0.36029    0.20060    0.28380   1.00
C3c      0.37753    0.15571    0.27504   1.00
H1       0.35292    0.10958    0.27825   1.00
C3d      0.39155    0.26866    0.27803   1.00
H1       0.38169    0.30030    0.28373   1.00
C3       0.42850    0.17990    0.26049   1.00
H1       0.43950    0.14964    0.25432   1.00
C3       0.44510    0.29028    0.26322   1.00
H1       0.46806    0.33566    0.25921   1.00
C2       0.46307    0.24703    0.25488   1.00
C2       0.92242    0.78917    0.33063   1.00
C3       0.87948    0.72406    0.33488   1.00
H1       0.86680    0.71162    0.34831   1.00
C3       0.93902    0.80659    0.31089   1.00
H1       0.96819    0.85204    0.30755   1.00
C3a      0.85293    0.67434    0.32018   1.00
H1       0.82273    0.62879    0.32314   1.00
C3b      0.91345    0.75846    0.29561   1.00
H1       0.92414    0.77084    0.28209   1.00
C6       0.86883    0.69152    0.30011   1.00
C6       0.84032    0.63971    0.28380   1.00
C3c      0.77819    0.62247    0.27504   1.00
H1       0.75667    0.64708    0.27825   1.00
C3d      0.87712    0.60845    0.27803   1.00
H1       0.91862    0.61831    0.28373   1.00
C3       0.75141    0.57150    0.26049   1.00
H1       0.71015    0.56050    0.25432   1.00
C3       0.84519    0.55490    0.26322   1.00
H1       0.86761    0.53194    0.25921   1.00
C2       0.78397    0.53693    0.25488   1.00
C2       0.86676    0.07758    0.33063   1.00
C3       0.84459    0.12052    0.33488   1.00
H1       0.84483    0.13320    0.34831   1.00
C3       0.86758    0.06098    0.31089   1.00
H1       0.88386    0.03181    0.30755   1.00
C3a      0.82142    0.14707    0.32018   1.00
H1       0.80606    0.17727    0.32314   1.00
C3b      0.84502    0.08655    0.29561   1.00
H1       0.84671    0.07586    0.28209   1.00
C6       0.82270    0.13117    0.30011   1.00
C6       0.79940    0.15968    0.28380   1.00
C3c      0.84429    0.22181    0.27504   1.00
H1       0.89042    0.24333    0.27825   1.00
C3d      0.73134    0.12288    0.27803   1.00
H1       0.69970    0.08138    0.28373   1.00
C3       0.82010    0.24859    0.26049   1.00
H1       0.85036    0.28985    0.25432   1.00
C3       0.70972    0.15481    0.26322   1.00
H1       0.66434    0.13239    0.25921   1.00
C2       0.75297    0.21603    0.25488   1.00
C2       0.86676    0.78917    0.83063   1.00
C3       0.84459    0.72406    0.83488   1.00
H1       0.84483    0.71162    0.84831   1.00
C3       0.86758    0.80659    0.81089   1.00
H1       0.88386    0.85204    0.80755   1.00
C3a      0.82142    0.67434    0.82018   1.00
H1       0.80606    0.62879    0.82314   1.00
C3b      0.84502    0.75846    0.79561   1.00
H1       0.84671    0.77084    0.78209   1.00
C6       0.82270    0.69152    0.80011   1.00
C6       0.79940    0.63971    0.78380   1.00
C3c      0.84429    0.62247    0.77504   1.00
H1       0.89042    0.64708    0.77825   1.00
C3d      0.73134    0.60845    0.77803   1.00
H1       0.69970    0.61831    0.78373   1.00
C3       0.82010    0.57150    0.76049   1.00
H1       0.85036    0.56050    0.75432   1.00
C3       0.70972    0.55490    0.76322   1.00
H1       0.66434    0.53194    0.75921   1.00
C2       0.75297    0.53693    0.75488   1.00
C2       0.21083    0.07758    0.83063   1.00
C3       0.27594    0.12052    0.83488   1.00
H1       0.28838    0.13320    0.84831   1.00
C3       0.19341    0.06098    0.81089   1.00
H1       0.14796    0.03181    0.80755   1.00
C3a      0.32566    0.14707    0.82018   1.00
H1       0.37121    0.17727    0.82314   1.00
C3b      0.24154    0.08655    0.79561   1.00
H1       0.22916    0.07586    0.78209   1.00
C6       0.30848    0.13117    0.80011   1.00
C6       0.36029    0.15968    0.78380   1.00
C3c      0.37753    0.22181    0.77504   1.00
H1       0.35292    0.24333    0.77825   1.00
C3d      0.39155    0.12288    0.77803   1.00
H1       0.38169    0.08138    0.78373   1.00
C3       0.42850    0.24859    0.76049   1.00
H1       0.43950    0.28985    0.75432   1.00
C3       0.44510    0.15481    0.76322   1.00
H1       0.46806    0.13239    0.75921   1.00
C2       0.46307    0.21603    0.75488   1.00
C2       0.92242    0.13324    0.83063   1.00
C3       0.87948    0.15541    0.83488   1.00
H1       0.86680    0.15517    0.84831   1.00
C3       0.93902    0.13242    0.81089   1.00
H1       0.96819    0.11614    0.80755   1.00
C3a      0.85293    0.17858    0.82018   1.00
H1       0.82273    0.19394    0.82314   1.00
C3b      0.91345    0.15498    0.79561   1.00
H1       0.92414    0.15329    0.78209   1.00
C6       0.86883    0.17730    0.80011   1.00
C6       0.84032    0.20060    0.78380   1.00
C3c      0.77819    0.15571    0.77504   1.00
H1       0.75667    0.10958    0.77825   1.00
C3d      0.87712    0.26866    0.77803   1.00
H1       0.91862    0.30030    0.78373   1.00
C3       0.75141    0.17990    0.76049   1.00
H1       0.71015    0.14964    0.75432   1.00
C3       0.84519    0.29028    0.76322   1.00
H1       0.86761    0.33566    0.75921   1.00
C2       0.78397    0.24703    0.75488   1.00
C2       0.12251    0.53342    0.33603   1.00
C3       0.05740    0.51125    0.33178   1.00
H1       0.04496    0.51149    0.31835   1.00
C3       0.13993    0.53424    0.35577   1.00
H1       0.18538    0.55052    0.35911   1.00
C3a      0.00768    0.48808    0.34648   1.00
H1       -0.03787   0.47272    0.34352   1.00
C3b      0.09180    0.51168    0.37105   1.00
H1       0.10418    0.51337    0.38457   1.00
C6       0.02486    0.48936    0.36655   1.00
C6       0.97305    0.46606    0.38286   1.00
C3c      0.95581    0.51095    0.39162   1.00
H1       0.98042    0.55708    0.38841   1.00
C3d      0.94179    0.39800    0.38863   1.00
H1       0.95165    0.36636    0.38293   1.00
C3       0.90484    0.48676    0.40617   1.00
H1       0.89384    0.51702    0.41234   1.00
C3       0.88824    0.37638    0.40344   1.00
H1       0.86528    0.33100    0.40745   1.00
C2       0.87027    0.41963    0.41178   1.00
C2       0.41092    0.87749    0.33603   1.00
C3       0.45386    0.94260    0.33178   1.00
H1       0.46654    0.95504    0.31835   1.00
C3       0.39432    0.86007    0.35577   1.00
H1       0.36515    0.81462    0.35911   1.00
C3a      0.48041    0.99232    0.34648   1.00
H1       0.51061    1.03787    0.34352   1.00
C3b      0.41989    0.90820    0.37105   1.00
H1       0.40920    0.89582    0.38457   1.00
C6       0.46451    0.97514    0.36655   1.00
C6       0.49302    0.02695    0.38286   1.00
C3c      0.55515    0.04419    0.39162   1.00
H1       0.57667    0.01958    0.38841   1.00
C3d      0.45622    0.05821    0.38863   1.00
H1       0.41472    0.04835    0.38293   1.00
C3       0.58193    0.09516    0.40617   1.00
H1       0.62319    0.10616    0.41234   1.00
C3       0.48815    0.11176    0.40344   1.00
H1       0.46573    0.13472    0.40745   1.00
C2       0.54937    0.12973    0.41178   1.00
C2       0.46658    0.58908    0.33603   1.00
C3       0.48875    0.54614    0.33178   1.00
H1       0.48851    0.53346    0.31835   1.00
C3       0.46576    0.60568    0.35577   1.00
H1       0.44948    0.63485    0.35911   1.00
C3a      0.51192    0.51959    0.34648   1.00
H1       0.52728    0.48939    0.34352   1.00
C3b      0.48832    0.58011    0.37105   1.00
H1       0.48663    0.59080    0.38457   1.00
C6       0.51064    0.53549    0.36655   1.00
C6       0.53394    0.50698    0.38286   1.00
C3c      0.48905    0.44485    0.39162   1.00
H1       0.44292    0.42333    0.38841   1.00
C3d      0.60200    0.54378    0.38863   1.00
H1       0.63364    0.58528    0.38293   1.00
C3       0.51324    0.41807    0.40617   1.00
H1       0.48298    0.37681    0.41234   1.00
C3       0.62362    0.51185    0.40344   1.00
H1       0.66900    0.53427    0.40745   1.00
C2       0.58037    0.45063    0.41178   1.00
C2       0.13324    0.21083    0.16937   1.00
C3       0.15541    0.27594    0.16512   1.00
H1       0.15517    0.28838    0.15169   1.00
C3       0.13242    0.19341    0.18911   1.00
H1       0.11614    0.14796    0.19245   1.00
C3a      0.17858    0.32566    0.17982   1.00
H1       0.19394    0.37121    0.17686   1.00
C3b      0.15498    0.24154    0.20439   1.00
H1       0.15329    0.22916    0.21791   1.00
C6       0.17730    0.30848    0.19989   1.00
C6       0.20060    0.36029    0.21620   1.00
C3c      0.15571    0.37753    0.22496   1.00
H1       0.10958    0.35292    0.22175   1.00
C3d      0.26866    0.39155    0.22197   1.00
H1       0.30030    0.38169    0.21627   1.00
C3       0.17990    0.42850    0.23951   1.00
H1       0.14964    0.43950    0.24568   1.00
C3       0.29028    0.44510    0.23678   1.00
H1       0.33566    0.46806    0.24079   1.00
C2       0.24703    0.46307    0.24512   1.00
C2       0.78917    0.92242    0.16937   1.00
C3       0.72406    0.87948    0.16512   1.00
H1       0.71162    0.86680    0.15169   1.00
C3       0.80659    0.93902    0.18911   1.00
H1       0.85204    0.96819    0.19245   1.00
C3a      0.67434    0.85293    0.17982   1.00
H1       0.62879    0.82273    0.17686   1.00
C3b      0.75846    0.91345    0.20439   1.00
H1       0.77084    0.92414    0.21791   1.00
C6       0.69152    0.86883    0.19989   1.00
C6       0.63971    0.84032    0.21620   1.00
C3c      0.62247    0.77819    0.22496   1.00
H1       0.64708    0.75667    0.22175   1.00
C3d      0.60845    0.87712    0.22197   1.00
H1       0.61831    0.91862    0.21627   1.00
C3       0.57150    0.75141    0.23951   1.00
H1       0.56050    0.71015    0.24568   1.00
C3       0.55490    0.84519    0.23678   1.00
H1       0.53194    0.86761    0.24079   1.00
C2       0.53693    0.78397    0.24512   1.00
C2       0.07758    0.86676    0.16937   1.00
C3       0.12052    0.84459    0.16512   1.00
H1       0.13320    0.84483    0.15169   1.00
C3       0.06098    0.86758    0.18911   1.00
H1       0.03181    0.88386    0.19245   1.00
C3a      0.14707    0.82142    0.17982   1.00
H1       0.17727    0.80606    0.17686   1.00
C3b      0.08655    0.84502    0.20439   1.00
H1       0.07586    0.84671    0.21791   1.00
C6       0.13117    0.82270    0.19989   1.00
C6       0.15968    0.79940    0.21620   1.00
C3c      0.22181    0.84429    0.22496   1.00
H1       0.24333    0.89042    0.22175   1.00
C3d      0.12288    0.73134    0.22197   1.00
H1       0.08138    0.69970    0.21627   1.00
C3       0.24859    0.82010    0.23951   1.00
H1       0.28985    0.85036    0.24568   1.00
C3       0.15481    0.70972    0.23678   1.00
H1       0.13239    0.66434    0.24079   1.00
C2       0.21603    0.75297    0.24512   1.00
C2       0.87749    0.46658    0.66397   1.00
C3       0.94260    0.48875    0.66822   1.00
H1       0.95504    0.48851    0.68165   1.00
C3       0.86007    0.46576    0.64423   1.00
H1       0.81462    0.44948    0.64089   1.00
C3a      0.99232    0.51192    0.65352   1.00
H1       1.03787    0.52728    0.65648   1.00
C3b      0.90820    0.48832    0.62895   1.00
H1       0.89582    0.48663    0.61543   1.00
C6       0.97514    0.51064    0.63345   1.00
C6       0.02695    0.53394    0.61714   1.00
C3c      0.04419    0.48905    0.60838   1.00
H1       0.01958    0.44292    0.61159   1.00
C3d      0.05821    0.60200    0.61137   1.00
H1       0.04835    0.63364    0.61707   1.00
C3       0.09516    0.51324    0.59383   1.00
H1       0.10616    0.48298    0.58766   1.00
C3       0.11176    0.62362    0.59656   1.00
H1       0.13472    0.66900    0.59255   1.00
C2       0.12973    0.58037    0.58822   1.00
C2       0.58908    0.12251    0.66397   1.00
C3       0.54614    0.05740    0.66822   1.00
H1       0.53346    0.04496    0.68165   1.00
C3       0.60568    0.13993    0.64423   1.00
H1       0.63485    0.18538    0.64089   1.00
C3a      0.51959    0.00768    0.65352   1.00
H1       0.48939    -0.03787   0.65648   1.00
C3b      0.58011    0.09180    0.62895   1.00
H1       0.59080    0.10418    0.61543   1.00
C6       0.53549    0.02486    0.63345   1.00
C6       0.50698    0.97305    0.61714   1.00
C3c      0.44485    0.95581    0.60838   1.00
H1       0.42333    0.98042    0.61159   1.00
C3d      0.54378    0.94179    0.61137   1.00
H1       0.58528    0.95165    0.61707   1.00
C3       0.41807    0.90484    0.59383   1.00
H1       0.37681    0.89384    0.58766   1.00
C3       0.51185    0.88824    0.59656   1.00
H1       0.53427    0.86528    0.59255   1.00
C2       0.45063    0.87027    0.58822   1.00
C2       0.53342    0.41092    0.66397   1.00
C3       0.51125    0.45386    0.66822   1.00
H1       0.51149    0.46654    0.68165   1.00
C3       0.53424    0.39432    0.64423   1.00
H1       0.55052    0.36515    0.64089   1.00
C3a      0.48808    0.48041    0.65352   1.00
H1       0.47272    0.51061    0.65648   1.00
C3b      0.51168    0.41989    0.62895   1.00
H1       0.51337    0.40920    0.61543   1.00
C6       0.48936    0.46451    0.63345   1.00
C6       0.46606    0.49302    0.61714   1.00
C3c      0.51095    0.55515    0.60838   1.00
H1       0.55708    0.57667    0.61159   1.00
C3d      0.39800    0.45622    0.61137   1.00
H1       0.36636    0.41472    0.61707   1.00
C3       0.48676    0.58193    0.59383   1.00
H1       0.51702    0.62319    0.58766   1.00
C3       0.37638    0.48815    0.59656   1.00
H1       0.33100    0.46573    0.59255   1.00
C2       0.41963    0.54937    0.58822   1.00
C2       0.53342    0.12251    0.16397   1.00
C3       0.51125    0.05740    0.16822   1.00
H1       0.51149    0.04496    0.18165   1.00
C3       0.53424    0.13993    0.14423   1.00
H1       0.55052    0.18538    0.14089   1.00
C3a      0.48808    0.00768    0.15352   1.00
H1       0.47272    -0.03787   0.15648   1.00
C3b      0.51168    0.09180    0.12895   1.00
H1       0.51337    0.10418    0.11543   1.00
C6       0.48936    0.02486    0.13345   1.00
C6       0.46606    0.97305    0.11714   1.00
C3c      0.51095    0.95581    0.10838   1.00
H1       0.55708    0.98042    0.11159   1.00
C3d      0.39800    0.94179    0.11137   1.00
H1       0.36636    0.95165    0.11707   1.00
C3       0.48676    0.90484    0.09383   1.00
H1       0.51702    0.89384    0.08766   1.00
C3       0.37638    0.88824    0.09656   1.00
H1       0.33100    0.86528    0.09255   1.00
C2       0.41963    0.87027    0.08822   1.00
C2       0.87749    0.41092    0.16397   1.00
C3       0.94260    0.45386    0.16822   1.00
H1       0.95504    0.46654    0.18165   1.00
C3       0.86007    0.39432    0.14423   1.00
H1       0.81462    0.36515    0.14089   1.00
C3a      0.99232    0.48041    0.15352   1.00
H1       1.03787    0.51061    0.15648   1.00
C3b      0.90820    0.41989    0.12895   1.00
H1       0.89582    0.40920    0.11543   1.00
C6       0.97514    0.46451    0.13345   1.00
C6       0.02695    0.49302    0.11714   1.00
C3c      0.04419    0.55515    0.10838   1.00
H1       0.01958    0.57667    0.11159   1.00
C3d      0.05821    0.45622    0.11137   1.00
H1       0.04835    0.41472    0.11707   1.00
C3       0.09516    0.58193    0.09383   1.00
H1       0.10616    0.62319    0.08766   1.00
C3       0.11176    0.48815    0.09656   1.00
H1       0.13472    0.46573    0.09255   1.00
C2       0.12973    0.54937    0.08822   1.00
C2       0.58908    0.46658    0.16397   1.00
C3       0.54614    0.48875    0.16822   1.00
H1       0.53346    0.48851    0.18165   1.00
C3       0.60568    0.46576    0.14423   1.00
H1       0.63485    0.44948    0.14089   1.00
C3a      0.51959    0.51192    0.15352   1.00
H1       0.48939    0.52728    0.15648   1.00
C3b      0.58011    0.48832    0.12895   1.00
H1       0.59080    0.48663    0.11543   1.00
C6       0.53549    0.51064    0.13345   1.00
C6       0.50698    0.53394    0.11714   1.00
C3c      0.44485    0.48905    0.10838   1.00
H1       0.42333    0.44292    0.11159   1.00
C3d      0.54378    0.60200    0.11137   1.00
H1       0.58528    0.63364    0.11707   1.00
C3       0.41807    0.51324    0.09383   1.00
H1       0.37681    0.48298    0.08766   1.00
C3       0.51185    0.62362    0.09656   1.00
H1       0.53427    0.66900    0.09255   1.00
C2       0.45063    0.58037    0.08822   1.00
C2       0.78917    0.86676    0.66937   1.00
C3       0.72406    0.84459    0.66512   1.00
H1       0.71162    0.84483    0.65169   1.00
C3       0.80659    0.86758    0.68911   1.00
H1       0.85204    0.88386    0.69245   1.00
C3a      0.67434    0.82142    0.67982   1.00
H1       0.62879    0.80606    0.67686   1.00
C3b      0.75846    0.84502    0.70439   1.00
H1       0.77084    0.84671    0.71791   1.00
C6       0.69152    0.82270    0.69989   1.00
C6       0.63971    0.79940    0.71620   1.00
C3c      0.62247    0.84429    0.72496   1.00
H1       0.64708    0.89042    0.72175   1.00
C3d      0.60845    0.73134    0.72197   1.00
H1       0.61831    0.69970    0.71627   1.00
C3       0.57150    0.82010    0.73951   1.00
H1       0.56050    0.85036    0.74568   1.00
C3       0.55490    0.70972    0.73678   1.00
H1       0.53194    0.66434    0.74079   1.00
C2       0.53693    0.75297    0.74512   1.00
C2       0.07758    0.21083    0.66937   1.00
C3       0.12052    0.27594    0.66512   1.00
H1       0.13320    0.28838    0.65169   1.00
C3       0.06098    0.19341    0.68911   1.00
H1       0.03181    0.14796    0.69245   1.00
C3a      0.14707    0.32566    0.67982   1.00
H1       0.17727    0.37121    0.67686   1.00
C3b      0.08655    0.24154    0.70439   1.00
H1       0.07586    0.22916    0.71791   1.00
C6       0.13117    0.30848    0.69989   1.00
C6       0.15968    0.36029    0.71620   1.00
C3c      0.22181    0.37753    0.72496   1.00
H1       0.24333    0.35292    0.72175   1.00
C3d      0.12288    0.39155    0.72197   1.00
H1       0.08138    0.38169    0.71627   1.00
C3       0.24859    0.42850    0.73951   1.00
H1       0.28985    0.43950    0.74568   1.00
C3       0.15481    0.44510    0.73678   1.00
H1       0.13239    0.46806    0.74079   1.00
C2       0.21603    0.46307    0.74512   1.00
C2       0.13324    0.92242    0.66937   1.00
C3       0.15541    0.87948    0.66512   1.00
H1       0.15517    0.86680    0.65169   1.00
C3       0.13242    0.93902    0.68911   1.00
H1       0.11614    0.96819    0.69245   1.00
C3a      0.17858    0.85293    0.67982   1.00
H1       0.19394    0.82273    0.67686   1.00
C3b      0.15498    0.91345    0.70439   1.00
H1       0.15329    0.92414    0.71791   1.00
C6       0.17730    0.86883    0.69989   1.00
C6       0.20060    0.84032    0.71620   1.00
C3c      0.15571    0.77819    0.72496   1.00
H1       0.10958    0.75667    0.72175   1.00
C3d      0.26866    0.87712    0.72197   1.00
H1       0.30030    0.91862    0.71627   1.00
C3       0.17990    0.75141    0.73951   1.00
H1       0.14964    0.71015    0.74568   1.00
C3       0.29028    0.84519    0.73678   1.00
H1       0.33566    0.86761    0.74079   1.00
C2       0.24703    0.78397    0.74512   1.00
