data_IRMOF10_interpen_symm_ligand1lp_symm_a

_audit_creation_method             'generated by an auxiliary program of Tobunporous'

_symmetry_space_group_name_H-M     'P 1'
_symmetry_Int_Tables_number        1
_symmetry_cell_setting             triclinic

_cell_length_a                    22.6523
_cell_length_b                    22.6523
_cell_length_c                    65.9502
_cell_angle_alpha                 90.0000
_cell_angle_beta                  90.0000
_cell_angle_gamma                 120.0000

loop_
_atom_site_label
_atom_site_fract_x
_atom_site_fract_y
_atom_site_fract_z
_atom_site_occupancy
O1       0.00000    -0.00000   0.62500   1.00
Zn      0.00000    -0.00000   0.59589   1.00
Zn      0.94848    1.04288    0.63392   1.00
Zn      0.09439    0.05152    0.63392   1.00
Zn      -0.04288   0.90561    0.63392   1.00
O2       0.93860    0.02610    0.58587   1.00
O2       0.08750    0.06140    0.58587   1.00
O2       -0.02610   0.91250    0.58587   1.00
O2       0.91305    0.07161    0.61181   1.00
O2       0.00462    0.12022    0.65110   1.00
O2       0.87413    0.98074    0.65071   1.00
O2       0.15856    0.08695    0.61181   1.00
O2       0.10660    0.12587    0.65071   1.00
O2       0.11559    0.99538    0.65110   1.00
O2       -0.07161   0.84144    0.61181   1.00
O2       0.87978    0.88441    0.65110   1.00
O2       0.01926    0.89340    0.65071   1.00
C1       0.91390    0.06020    0.59358   1.00
C1       0.14630    0.08610    0.59358   1.00
C1       -0.06020   0.85370    0.59358   1.00
C1       0.06663    0.14397    0.65673   1.00
C1       0.85603    0.92267    0.65673   1.00
C1       0.07733    0.93337    0.65673   1.00
O1       -0.00000   0.00000    0.87500   1.00
Zn      -0.00000   0.00000    0.90411   1.00
Zn      1.04288    0.94848    0.86608   1.00
Zn      0.05152    0.09439    0.86608   1.00
Zn      0.90561    -0.04288   0.86608   1.00
O2       0.02610    0.93860    0.91413   1.00
O2       0.06140    0.08750    0.91413   1.00
O2       0.91250    -0.02610   0.91413   1.00
O2       0.07161    0.91305    0.88819   1.00
O2       0.12022    0.00462    0.84890   1.00
O2       0.98074    0.87413    0.84929   1.00
O2       0.08695    0.15856    0.88819   1.00
O2       0.12587    0.10660    0.84929   1.00
O2       0.99538    0.11559    0.84890   1.00
O2       0.84144    -0.07161   0.88819   1.00
O2       0.88441    0.87978    0.84890   1.00
O2       0.89340    0.01926    0.84929   1.00
C1       0.06020    0.91390    0.90642   1.00
C1       0.08610    0.14630    0.90642   1.00
C1       0.85370    -0.06020   0.90642   1.00
C1       0.14397    0.06663    0.84327   1.00
C1       0.92267    0.85603    0.84327   1.00
C1       0.93337    0.07733    0.84327   1.00
O1       0.00000    0.00000    0.37500   1.00
Zn      0.00000    0.00000    0.40411   1.00
Zn      0.05152    -0.04288   0.36608   1.00
Zn      0.90561    0.94848    0.36608   1.00
Zn      1.04288    0.09439    0.36608   1.00
O2       0.06140    -0.02610   0.41413   1.00
O2       0.91250    0.93860    0.41413   1.00
O2       0.02610    0.08750    0.41413   1.00
O2       0.08695    -0.07161   0.38819   1.00
O2       0.99538    0.87978    0.34890   1.00
O2       0.12587    0.01926    0.34929   1.00
O2       0.84144    0.91305    0.38819   1.00
O2       0.89340    0.87413    0.34929   1.00
O2       0.88441    0.00462    0.34890   1.00
O2       0.07161    0.15856    0.38819   1.00
O2       0.12022    0.11559    0.34890   1.00
O2       0.98074    0.10660    0.34929   1.00
C1       0.08610    -0.06020   0.40642   1.00
C1       0.85370    0.91390    0.40642   1.00
C1       0.06020    0.14630    0.40642   1.00
C1       0.93337    0.85603    0.34327   1.00
C1       0.14397    0.07733    0.34327   1.00
C1       0.92267    0.06663    0.34327   1.00
O1       0.00000    0.00000    0.12500   1.00
Zn      0.00000    0.00000    0.09589   1.00
Zn      -0.04288   0.05152    0.13392   1.00
Zn      0.94848    0.90561    0.13392   1.00
Zn      0.09439    1.04288    0.13392   1.00
O2       -0.02610   0.06140    0.08587   1.00
O2       0.93860    0.91250    0.08587   1.00
O2       0.08750    0.02610    0.08587   1.00
O2       -0.07161   0.08695    0.11181   1.00
O2       0.87978    0.99538    0.15110   1.00
O2       0.01926    0.12587    0.15071   1.00
O2       0.91305    0.84144    0.11181   1.00
O2       0.87413    0.89340    0.15071   1.00
O2       0.00462    0.88441    0.15110   1.00
O2       0.15856    0.07161    0.11181   1.00
O2       0.11559    0.12022    0.15110   1.00
O2       0.10660    0.98074    0.15071   1.00
C1       -0.06020   0.08610    0.09358   1.00
C1       0.91390    0.85370    0.09358   1.00
C1       0.14630    0.06020    0.09358   1.00
C1       0.85603    0.93337    0.15673   1.00
C1       0.07733    0.14397    0.15673   1.00
C1       0.06663    0.92267    0.15673   1.00
O1       0.66667    0.33333    0.95833   1.00
Zn      0.66667    0.33333    0.92922   1.00
Zn      0.61515    0.37621    0.96725   1.00
Zn      0.76106    0.38485    0.96725   1.00
Zn      -0.37621   0.23894    0.96725   1.00
O2       0.60527    0.35943    0.91920   1.00
O2       0.75417    0.39473    0.91920   1.00
O2       0.64057    0.24583    0.91920   1.00
O2       0.57972    0.40494    0.94514   1.00
O2       0.67129    0.45355    0.98443   1.00
O2       0.54080    0.31407    0.98404   1.00
O2       0.82523    0.42028    0.94514   1.00
O2       0.77327    0.45920    0.98404   1.00
O2       -0.21774   0.32871    0.98443   1.00
O2       0.59506    0.17477    0.94514   1.00
O2       0.54645    0.21774    0.98443   1.00
O2       -0.31407   0.22673    0.98404   1.00
C1       0.58057    0.39353    0.92691   1.00
C1       0.81297    0.41943    0.92691   1.00
C1       0.60647    0.18703    0.92691   1.00
C1       0.73330    0.47730    0.99006   1.00
C1       0.52270    0.25600    0.99006   1.00
C1       -0.25600   0.26670    0.99006   1.00
O1       0.66667    0.33333    0.20833   1.00
Zn      0.66667    0.33333    0.23744   1.00
Zn      0.70954    0.28182    0.19942   1.00
Zn      0.71818    0.42773    0.19942   1.00
Zn      0.57227    0.29046    0.19942   1.00
O2       0.69277    0.27193    0.24746   1.00
O2       0.72807    0.42083    0.24746   1.00
O2       0.57917    0.30723    0.24746   1.00
O2       0.73828    0.24638    0.22152   1.00
O2       0.78688    0.33796    0.18224   1.00
O2       0.64740    0.20747    0.18263   1.00
O2       0.75362    0.49189    0.22152   1.00
O2       0.79253    0.43994    0.18263   1.00
O2       0.66204    0.44893    0.18224   1.00
O2       0.50811    0.26172    0.22152   1.00
O2       0.55107    0.21312    0.18224   1.00
O2       0.56006    0.35260    0.18263   1.00
C1       0.72687    0.24723    0.23975   1.00
C1       0.75277    0.47963    0.23975   1.00
C1       0.52037    0.27313    0.23975   1.00
C1       0.81063    0.39997    0.17661   1.00
C1       0.58933    0.18937    0.17661   1.00
C1       0.60003    0.41067    0.17661   1.00
O1       0.66667    0.33333    0.70833   1.00
Zn      0.66667    0.33333    0.73744   1.00
Zn      0.71818    0.29046    0.69942   1.00
Zn      0.57227    0.28182    0.69942   1.00
Zn      0.70954    0.42773    0.69942   1.00
O2       0.72807    0.30723    0.74746   1.00
O2       0.57917    0.27193    0.74746   1.00
O2       0.69277    0.42083    0.74746   1.00
O2       0.75362    0.26172    0.72152   1.00
O2       0.66204    0.21312    0.68224   1.00
O2       0.79253    0.35260    0.68263   1.00
O2       0.50811    0.24638    0.72152   1.00
O2       0.56006    0.20747    0.68263   1.00
O2       0.55107    0.33796    0.68224   1.00
O2       0.73828    0.49189    0.72152   1.00
O2       0.78688    0.44893    0.68224   1.00
O2       0.64740    0.43994    0.68263   1.00
C1       0.75277    0.27313    0.73975   1.00
C1       0.52037    0.24723    0.73975   1.00
C1       0.72687    0.47963    0.73975   1.00
C1       0.60003    0.18937    0.67661   1.00
C1       0.81063    0.41067    0.67661   1.00
C1       0.58933    0.39997    0.67661   1.00
O1       0.66667    0.33333    0.45833   1.00
Zn      0.66667    0.33333    0.42922   1.00
Zn      -0.37621   0.38485    0.46725   1.00
Zn      0.61515    0.23894    0.46725   1.00
Zn      0.76106    0.37621    0.46725   1.00
O2       0.64057    0.39473    0.41920   1.00
O2       0.60527    0.24583    0.41920   1.00
O2       0.75417    0.35943    0.41920   1.00
O2       0.59506    0.42028    0.44514   1.00
O2       0.54645    0.32871    0.48443   1.00
O2       -0.31407   0.45920    0.48404   1.00
O2       0.57972    0.17477    0.44514   1.00
O2       0.54080    0.22673    0.48404   1.00
O2       0.67129    0.21774    0.48443   1.00
O2       0.82523    0.40494    0.44514   1.00
O2       -0.21774   0.45355    0.48443   1.00
O2       0.77327    0.31407    0.48404   1.00
C1       0.60647    0.41943    0.42691   1.00
C1       0.58057    0.18703    0.42691   1.00
C1       0.81297    0.39353    0.42691   1.00
C1       0.52270    0.26670    0.49006   1.00
C1       -0.25600   0.47730    0.49006   1.00
C1       0.73330    0.25600    0.49006   1.00
O1       0.33333    0.66667    0.29167   1.00
Zn      0.33333    0.66667    0.26256   1.00
Zn      0.28182    0.70954    0.30058   1.00
Zn      0.42773    0.71818    0.30058   1.00
Zn      0.29046    0.57227    0.30058   1.00
O2       0.27193    0.69277    0.25254   1.00
O2       0.42083    0.72807    0.25254   1.00
O2       0.30723    0.57917    0.25254   1.00
O2       0.24638    0.73828    0.27848   1.00
O2       0.33796    0.78688    0.31776   1.00
O2       0.20747    0.64740    0.31737   1.00
O2       0.49189    0.75362    0.27848   1.00
O2       0.43994    0.79253    0.31737   1.00
O2       0.44893    0.66204    0.31776   1.00
O2       0.26172    0.50811    0.27848   1.00
O2       0.21312    0.55107    0.31776   1.00
O2       0.35260    0.56006    0.31737   1.00
C1       0.24723    0.72687    0.26025   1.00
C1       0.47963    0.75277    0.26025   1.00
C1       0.27313    0.52037    0.26025   1.00
C1       0.39997    0.81063    0.32339   1.00
C1       0.18937    0.58933    0.32339   1.00
C1       0.41067    0.60003    0.32339   1.00
O1       0.33333    0.66667    0.54167   1.00
Zn      0.33333    0.66667    0.57078   1.00
Zn      0.37621    0.61515    0.53275   1.00
Zn      0.38485    0.76106    0.53275   1.00
Zn      0.23894    -0.37621   0.53275   1.00
O2       0.35943    0.60527    0.58080   1.00
O2       0.39473    0.75417    0.58080   1.00
O2       0.24583    0.64057    0.58080   1.00
O2       0.40494    0.57972    0.55486   1.00
O2       0.45355    0.67129    0.51557   1.00
O2       0.31407    0.54080    0.51596   1.00
O2       0.42028    0.82523    0.55486   1.00
O2       0.45920    0.77327    0.51596   1.00
O2       0.32871    -0.21774   0.51557   1.00
O2       0.17477    0.59506    0.55486   1.00
O2       0.21774    0.54645    0.51557   1.00
O2       0.22673    -0.31407   0.51596   1.00
C1       0.39353    0.58057    0.57309   1.00
C1       0.41943    0.81297    0.57309   1.00
C1       0.18703    0.60647    0.57309   1.00
C1       0.47730    0.73330    0.50994   1.00
C1       0.25600    0.52270    0.50994   1.00
C1       0.26670    -0.25600   0.50994   1.00
O1       0.33333    0.66667    0.04167   1.00
Zn      0.33333    0.66667    0.07078   1.00
Zn      0.38485    -0.37621   0.03275   1.00
Zn      0.23894    0.61515    0.03275   1.00
Zn      0.37621    0.76106    0.03275   1.00
O2       0.39473    0.64057    0.08080   1.00
O2       0.24583    0.60527    0.08080   1.00
O2       0.35943    0.75417    0.08080   1.00
O2       0.42028    0.59506    0.05486   1.00
O2       0.32871    0.54645    0.01557   1.00
O2       0.45920    -0.31407   0.01596   1.00
O2       0.17477    0.57972    0.05486   1.00
O2       0.22673    0.54080    0.01596   1.00
O2       0.21774    0.67129    0.01557   1.00
O2       0.40494    0.82523    0.05486   1.00
O2       0.45355    -0.21774   0.01557   1.00
O2       0.31407    0.77327    0.01596   1.00
C1       0.41943    0.60647    0.07309   1.00
C1       0.18703    0.58057    0.07309   1.00
C1       0.39353    0.81297    0.07309   1.00
C1       0.26670    0.52270    0.00994   1.00
C1       0.47730    -0.25600   0.00994   1.00
C1       0.25600    0.73330    0.00994   1.00
O1       0.33333    0.66667    0.79167   1.00
Zn      0.33333    0.66667    0.76256   1.00
Zn      0.29046    0.71818    0.80058   1.00
Zn      0.28182    0.57227    0.80058   1.00
Zn      0.42773    0.70954    0.80058   1.00
O2       0.30723    0.72807    0.75254   1.00
O2       0.27193    0.57917    0.75254   1.00
O2       0.42083    0.69277    0.75254   1.00
O2       0.26172    0.75362    0.77848   1.00
O2       0.21312    0.66204    0.81776   1.00
O2       0.35260    0.79253    0.81737   1.00
O2       0.24638    0.50811    0.77848   1.00
O2       0.20747    0.56006    0.81737   1.00
O2       0.33796    0.55107    0.81776   1.00
O2       0.49189    0.73828    0.77848   1.00
O2       0.44893    0.78688    0.81776   1.00
O2       0.43994    0.64740    0.81737   1.00
C1       0.27313    0.75277    0.76025   1.00
C1       0.24723    0.52037    0.76025   1.00
C1       0.47963    0.72687    0.76025   1.00
C1       0.18937    0.60003    0.82339   1.00
C1       0.41067    0.81063    0.82339   1.00
C1       0.39997    0.58933    0.82339   1.00
C2       -0.22113   0.51404    0.51268   1.00
C3       -0.22920   0.50719    0.53266   1.00
H1       -0.25287   0.46352    0.53812   1.00
C3       -0.18502   0.57811    0.50503   1.00
H1       -0.17790   0.58403    0.49111   1.00
C4       -0.20376   0.56218    0.54558   1.00
C5       -0.21271   0.55437    0.56846   1.00
H2       -0.17658   0.54917    0.57421   1.00
H2       -0.25575   0.51491    0.57156   1.00
H2       -0.21134   0.59410    0.57408   1.00
C4       -0.15834   0.63483    0.51742   1.00
C5       -0.11554   0.70790    0.50858   1.00
H2       -0.14450   0.72687    0.50630   1.00
H2       -0.09522   0.70600    0.49602   1.00
H2       -0.08047   0.73597    0.51801   1.00
C6       -0.16647   0.62729    0.53802   1.00
C6       -0.13714   0.68779    0.55146   1.00
C4       -0.07330   0.71193    0.56000   1.00
C5       -0.03041   0.68265    0.55377   1.00
H2       -0.03849   0.64594    0.56271   1.00
H2       0.01665    0.71716    0.55443   1.00
H2       -0.04177   0.66587    0.54010   1.00
C4       -0.17630   0.71799    0.55546   1.00
C5       -0.24757   0.69280    0.54672   1.00
H2       -0.24372   0.71405    0.53376   1.00
H2       -0.27330   0.70438    0.55580   1.00
H2       -0.27020   0.64434    0.54500   1.00
C3       -0.04870   0.76664    0.57326   1.00
H1       -0.00530   0.78374    0.57879   1.00
C3       -0.14804   0.77339    0.56977   1.00
H1       -0.17314   0.79420    0.57311   1.00
C2       -0.08630   0.79640    0.57845   1.00
C2       0.48596    0.26483    0.51268   1.00
C3       0.49281    0.26361    0.53266   1.00
H1       0.53648    0.28361    0.53812   1.00
C3       0.42189    0.23687    0.50503   1.00
H1       0.41597    0.23807    0.49111   1.00
C4       0.43782    0.23406    0.54558   1.00
C5       0.44563    0.23292    0.56846   1.00
H2       0.45083    0.27425    0.57421   1.00
H2       0.48509    0.22934    0.57156   1.00
H2       0.40590    0.19456    0.57408   1.00
C4       0.36517    0.20683    0.51742   1.00
C5       0.29210    0.17656    0.50858   1.00
H2       0.27313    0.12863    0.50630   1.00
H2       0.29400    0.19878    0.49602   1.00
H2       0.26403    0.18356    0.51801   1.00
C6       0.37271    0.20624    0.53802   1.00
C6       0.31221    0.17507    0.55146   1.00
C4       0.28807    0.21477    0.56000   1.00
C5       0.31735    0.28694    0.55377   1.00
H2       0.35406    0.31557    0.56271   1.00
H2       0.28284    0.29949    0.55443   1.00
H2       0.33413    0.29236    0.54010   1.00
C4       0.28201    0.10571    0.55546   1.00
C5       0.30720    0.05963    0.54672   1.00
H2       0.28595    0.04223    0.53376   1.00
H2       0.29562    0.02232    0.55580   1.00
H2       0.35566    0.08546    0.54500   1.00
C3       0.23336    0.18466    0.57326   1.00
H1       0.21626    0.21096    0.57879   1.00
C3       0.22661    0.07857    0.56977   1.00
H1       0.20580    0.03266    0.57311   1.00
C2       0.20360    0.11730    0.57845   1.00
C2       0.73517    0.22113    0.51268   1.00
C3       0.73639    0.22920    0.53266   1.00
H1       0.71639    0.25287    0.53812   1.00
C3       0.76313    0.18502    0.50503   1.00
H1       0.76193    0.17790    0.49111   1.00
C4       0.76594    0.20376    0.54558   1.00
C5       0.76708    0.21271    0.56846   1.00
H2       0.72575    0.17658    0.57421   1.00
H2       0.77066    0.25575    0.57156   1.00
H2       0.80544    0.21134    0.57408   1.00
C4       0.79317    0.15834    0.51742   1.00
C5       0.82344    0.11554    0.50858   1.00
H2       0.87137    0.14450    0.50630   1.00
H2       0.80122    0.09522    0.49602   1.00
H2       0.81644    0.08047    0.51801   1.00
C6       0.79376    0.16647    0.53802   1.00
C6       0.82493    0.13714    0.55146   1.00
C4       0.78523    0.07330    0.56000   1.00
C5       0.71306    0.03041    0.55377   1.00
H2       0.68443    0.03849    0.56271   1.00
H2       0.70051    0.98335    0.55443   1.00
H2       0.70764    0.04177    0.54010   1.00
C4       0.89429    0.17630    0.55546   1.00
C5       0.94037    0.24757    0.54672   1.00
H2       0.95777    0.24372    0.53376   1.00
H2       0.97768    0.27330    0.55580   1.00
H2       0.91454    0.27020    0.54500   1.00
C3       0.81534    0.04870    0.57326   1.00
H1       0.78904    0.00530    0.57879   1.00
C3       0.92143    0.14804    0.56977   1.00
H1       0.96734    0.17314    0.57311   1.00
C2       0.88270    0.08630    0.57845   1.00
C2       0.51404    -0.22113   0.98732   1.00
C3       0.50719    -0.22920   0.96734   1.00
H1       0.46352    -0.25287   0.96188   1.00
C3       0.57811    -0.18502   0.99497   1.00
H1       0.58403    -0.17790   0.00889   1.00
C4       0.56218    -0.20376   0.95442   1.00
C5       0.55437    -0.21271   0.93154   1.00
H2       0.54917    -0.17658   0.92579   1.00
H2       0.51491    -0.25575   0.92844   1.00
H2       0.59410    -0.21134   0.92592   1.00
C4       0.63483    -0.15834   0.98258   1.00
C5       0.70790    -0.11554   0.99142   1.00
H2       0.72687    -0.14450   0.99370   1.00
H2       0.70600    -0.09522   0.00398   1.00
H2       0.73597    -0.08047   0.98199   1.00
C6       0.62729    -0.16647   0.96198   1.00
C6       0.68779    -0.13714   0.94854   1.00
C4       0.71193    -0.07330   0.94000   1.00
C5       0.68265    -0.03041   0.94623   1.00
H2       0.64594    -0.03849   0.93729   1.00
H2       0.71716    0.01665    0.94557   1.00
H2       0.66587    -0.04177   0.95990   1.00
C4       0.71799    -0.17630   0.94454   1.00
C5       0.69280    -0.24757   0.95328   1.00
H2       0.71405    -0.24372   0.96624   1.00
H2       0.70438    -0.27330   0.94420   1.00
H2       0.64434    -0.27020   0.95500   1.00
C3       0.76664    -0.04870   0.92674   1.00
H1       0.78374    -0.00530   0.92121   1.00
C3       0.77339    -0.14804   0.93023   1.00
H1       0.79420    -0.17314   0.92689   1.00
C2       0.79640    -0.08630   0.92155   1.00
C2       0.26483    0.48596    0.98732   1.00
C3       0.26361    0.49281    0.96734   1.00
H1       0.28361    0.53648    0.96188   1.00
C3       0.23687    0.42189    0.99497   1.00
H1       0.23807    0.41597    0.00889   1.00
C4       0.23406    0.43782    0.95442   1.00
C5       0.23292    0.44563    0.93154   1.00
H2       0.27425    0.45083    0.92579   1.00
H2       0.22934    0.48509    0.92844   1.00
H2       0.19456    0.40590    0.92592   1.00
C4       0.20683    0.36517    0.98258   1.00
C5       0.17656    0.29210    0.99142   1.00
H2       0.12863    0.27313    0.99370   1.00
H2       0.19878    0.29400    0.00398   1.00
H2       0.18356    0.26403    0.98199   1.00
C6       0.20624    0.37271    0.96198   1.00
C6       0.17507    0.31221    0.94854   1.00
C4       0.21477    0.28807    0.94000   1.00
C5       0.28694    0.31735    0.94623   1.00
H2       0.31557    0.35406    0.93729   1.00
H2       0.29949    0.28284    0.94557   1.00
H2       0.29236    0.33413    0.95990   1.00
C4       0.10571    0.28201    0.94454   1.00
C5       0.05963    0.30720    0.95328   1.00
H2       0.04223    0.28595    0.96624   1.00
H2       0.02232    0.29562    0.94420   1.00
H2       0.08546    0.35566    0.95500   1.00
C3       0.18466    0.23336    0.92674   1.00
H1       0.21096    0.21626    0.92121   1.00
C3       0.07857    0.22661    0.93023   1.00
H1       0.03266    0.20580    0.92689   1.00
C2       0.11730    0.20360    0.92155   1.00
C2       0.22113    0.73517    0.98732   1.00
C3       0.22920    0.73639    0.96734   1.00
H1       0.25287    0.71639    0.96188   1.00
C3       0.18502    0.76313    0.99497   1.00
H1       0.17790    0.76193    0.00889   1.00
C4       0.20376    0.76594    0.95442   1.00
C5       0.21271    0.76708    0.93154   1.00
H2       0.17658    0.72575    0.92579   1.00
H2       0.25575    0.77066    0.92844   1.00
H2       0.21134    0.80544    0.92592   1.00
C4       0.15834    0.79317    0.98258   1.00
C5       0.11554    0.82344    0.99142   1.00
H2       0.14450    0.87137    0.99370   1.00
H2       0.09522    0.80122    0.00398   1.00
H2       0.08047    0.81644    0.98199   1.00
C6       0.16647    0.79376    0.96198   1.00
C6       0.13714    0.82493    0.94854   1.00
C4       0.07330    0.78523    0.94000   1.00
C5       0.03041    0.71306    0.94623   1.00
H2       0.03849    0.68443    0.93729   1.00
H2       0.98335    0.70051    0.94557   1.00
H2       0.04177    0.70764    0.95990   1.00
C4       0.17630    0.89429    0.94454   1.00
C5       0.24757    0.94037    0.95328   1.00
H2       0.24372    0.95777    0.96624   1.00
H2       0.27330    0.97768    0.94420   1.00
H2       0.27020    0.91454    0.95500   1.00
C3       0.04870    0.81534    0.92674   1.00
H1       0.00530    0.78904    0.92121   1.00
C3       0.14804    0.92143    0.93023   1.00
H1       0.17314    0.96734    0.92689   1.00
C2       0.08630    0.88270    0.92155   1.00
C2       0.22113    0.48596    0.48732   1.00
C3       0.22920    0.49281    0.46734   1.00
H1       0.25287    0.53648    0.46188   1.00
C3       0.18502    0.42189    0.49497   1.00
H1       0.17790    0.41597    0.50889   1.00
C4       0.20376    0.43782    0.45442   1.00
C5       0.21271    0.44563    0.43154   1.00
H2       0.17658    0.45083    0.42579   1.00
H2       0.25575    0.48509    0.42844   1.00
H2       0.21134    0.40590    0.42592   1.00
C4       0.15834    0.36517    0.48258   1.00
C5       0.11554    0.29210    0.49142   1.00
H2       0.14450    0.27313    0.49370   1.00
H2       0.09522    0.29400    0.50398   1.00
H2       0.08047    0.26403    0.48199   1.00
C6       0.16647    0.37271    0.46198   1.00
C6       0.13714    0.31221    0.44854   1.00
C4       0.07330    0.28807    0.44000   1.00
C5       0.03041    0.31735    0.44623   1.00
H2       0.03849    0.35406    0.43729   1.00
H2       0.98335    0.28284    0.44557   1.00
H2       0.04177    0.33413    0.45990   1.00
C4       0.17630    0.28201    0.44454   1.00
C5       0.24757    0.30720    0.45328   1.00
H2       0.24372    0.28595    0.46624   1.00
H2       0.27330    0.29562    0.44420   1.00
H2       0.27020    0.35566    0.45500   1.00
C3       0.04870    0.23336    0.42674   1.00
H1       0.00530    0.21626    0.42121   1.00
C3       0.14804    0.22661    0.43023   1.00
H1       0.17314    0.20580    0.42689   1.00
C2       0.08630    0.20360    0.42155   1.00
C2       0.51404    0.73517    0.48732   1.00
C3       0.50719    0.73639    0.46734   1.00
H1       0.46352    0.71639    0.46188   1.00
C3       0.57811    0.76313    0.49497   1.00
H1       0.58403    0.76193    0.50889   1.00
C4       0.56218    0.76594    0.45442   1.00
C5       0.55437    0.76708    0.43154   1.00
H2       0.54917    0.72575    0.42579   1.00
H2       0.51491    0.77066    0.42844   1.00
H2       0.59410    0.80544    0.42592   1.00
C4       0.63483    0.79317    0.48258   1.00
C5       0.70790    0.82344    0.49142   1.00
H2       0.72687    0.87137    0.49370   1.00
H2       0.70600    0.80122    0.50398   1.00
H2       0.73597    0.81644    0.48199   1.00
C6       0.62729    0.79376    0.46198   1.00
C6       0.68779    0.82493    0.44854   1.00
C4       0.71193    0.78523    0.44000   1.00
C5       0.68265    0.71306    0.44623   1.00
H2       0.64594    0.68443    0.43729   1.00
H2       0.71716    0.70051    0.44557   1.00
H2       0.66587    0.70764    0.45990   1.00
C4       0.71799    0.89429    0.44454   1.00
C5       0.69280    0.94037    0.45328   1.00
H2       0.71405    0.95777    0.46624   1.00
H2       0.70438    0.97768    0.44420   1.00
H2       0.64434    0.91454    0.45500   1.00
C3       0.76664    0.81534    0.42674   1.00
H1       0.78374    0.78904    0.42121   1.00
C3       0.77339    0.92143    0.43023   1.00
H1       0.79420    0.96734    0.42689   1.00
C2       0.79640    0.88270    0.42155   1.00
C2       0.26483    -0.22113   0.48732   1.00
C3       0.26361    -0.22920   0.46734   1.00
H1       0.28361    -0.25287   0.46188   1.00
C3       0.23687    -0.18502   0.49497   1.00
H1       0.23807    -0.17790   0.50889   1.00
C4       0.23406    -0.20376   0.45442   1.00
C5       0.23292    -0.21271   0.43154   1.00
H2       0.27425    -0.17658   0.42579   1.00
H2       0.22934    -0.25575   0.42844   1.00
H2       0.19456    -0.21134   0.42592   1.00
C4       0.20683    -0.15834   0.48258   1.00
C5       0.17656    -0.11554   0.49142   1.00
H2       0.12863    -0.14450   0.49370   1.00
H2       0.19878    -0.09522   0.50398   1.00
H2       0.18356    -0.08047   0.48199   1.00
C6       0.20624    -0.16647   0.46198   1.00
C6       0.17507    -0.13714   0.44854   1.00
C4       0.21477    -0.07330   0.44000   1.00
C5       0.28694    -0.03041   0.44623   1.00
H2       0.31557    -0.03849   0.43729   1.00
H2       0.29949    0.01665    0.44557   1.00
H2       0.29236    -0.04177   0.45990   1.00
C4       0.10571    -0.17630   0.44454   1.00
C5       0.05963    -0.24757   0.45328   1.00
H2       0.04223    -0.24372   0.46624   1.00
H2       0.02232    -0.27330   0.44420   1.00
H2       0.08546    -0.27020   0.45500   1.00
C3       0.18466    -0.04870   0.42674   1.00
H1       0.21096    -0.00530   0.42121   1.00
C3       0.07857    -0.14804   0.43023   1.00
H1       0.03266    -0.17314   0.42689   1.00
C2       0.11730    -0.08630   0.42155   1.00
C2       0.48596    0.22113    0.01268   1.00
C3       0.49281    0.22920    0.03266   1.00
H1       0.53648    0.25287    0.03812   1.00
C3       0.42189    0.18502    0.00503   1.00
H1       0.41597    0.17790    0.99111   1.00
C4       0.43782    0.20376    0.04558   1.00
C5       0.44563    0.21271    0.06846   1.00
H2       0.45083    0.17658    0.07421   1.00
H2       0.48509    0.25575    0.07156   1.00
H2       0.40590    0.21134    0.07408   1.00
C4       0.36517    0.15834    0.01742   1.00
C5       0.29210    0.11554    0.00858   1.00
H2       0.27313    0.14450    0.00630   1.00
H2       0.29400    0.09522    0.99602   1.00
H2       0.26403    0.08047    0.01801   1.00
C6       0.37271    0.16647    0.03802   1.00
C6       0.31221    0.13714    0.05146   1.00
C4       0.28807    0.07330    0.06000   1.00
C5       0.31735    0.03041    0.05377   1.00
H2       0.35406    0.03849    0.06271   1.00
H2       0.28284    0.98335    0.05443   1.00
H2       0.33413    0.04177    0.04010   1.00
C4       0.28201    0.17630    0.05546   1.00
C5       0.30720    0.24757    0.04672   1.00
H2       0.28595    0.24372    0.03376   1.00
H2       0.29562    0.27330    0.05580   1.00
H2       0.35566    0.27020    0.04500   1.00
C3       0.23336    0.04870    0.07326   1.00
H1       0.21626    0.00530    0.07879   1.00
C3       0.22661    0.14804    0.06977   1.00
H1       0.20580    0.17314    0.07311   1.00
C2       0.20360    0.08630    0.07845   1.00
C2       0.73517    0.51404    0.01268   1.00
C3       0.73639    0.50719    0.03266   1.00
H1       0.71639    0.46352    0.03812   1.00
C3       0.76313    0.57811    0.00503   1.00
H1       0.76193    0.58403    0.99111   1.00
C4       0.76594    0.56218    0.04558   1.00
C5       0.76708    0.55437    0.06846   1.00
H2       0.72575    0.54917    0.07421   1.00
H2       0.77066    0.51491    0.07156   1.00
H2       0.80544    0.59410    0.07408   1.00
C4       0.79317    0.63483    0.01742   1.00
C5       0.82344    0.70790    0.00858   1.00
H2       0.87137    0.72687    0.00630   1.00
H2       0.80122    0.70600    0.99602   1.00
H2       0.81644    0.73597    0.01801   1.00
C6       0.79376    0.62729    0.03802   1.00
C6       0.82493    0.68779    0.05146   1.00
C4       0.78523    0.71193    0.06000   1.00
C5       0.71306    0.68265    0.05377   1.00
H2       0.68443    0.64594    0.06271   1.00
H2       0.70051    0.71716    0.05443   1.00
H2       0.70764    0.66587    0.04010   1.00
C4       0.89429    0.71799    0.05546   1.00
C5       0.94037    0.69280    0.04672   1.00
H2       0.95777    0.71405    0.03376   1.00
H2       0.97768    0.70438    0.05580   1.00
H2       0.91454    0.64434    0.04500   1.00
C3       0.81534    0.76664    0.07326   1.00
H1       0.78904    0.78374    0.07879   1.00
C3       0.92143    0.77339    0.06977   1.00
H1       0.96734    0.79420    0.07311   1.00
C2       0.88270    0.79640    0.07845   1.00
C2       -0.22113   0.26483    0.01268   1.00
C3       -0.22920   0.26361    0.03266   1.00
H1       -0.25287   0.28361    0.03812   1.00
C3       -0.18502   0.23687    0.00503   1.00
H1       -0.17790   0.23807    0.99111   1.00
C4       -0.20376   0.23406    0.04558   1.00
C5       -0.21271   0.23292    0.06846   1.00
H2       -0.17658   0.27425    0.07421   1.00
H2       -0.25575   0.22934    0.07156   1.00
H2       -0.21134   0.19456    0.07408   1.00
C4       -0.15834   0.20683    0.01742   1.00
C5       -0.11554   0.17656    0.00858   1.00
H2       -0.14450   0.12863    0.00630   1.00
H2       -0.09522   0.19878    0.99602   1.00
H2       -0.08047   0.18356    0.01801   1.00
C6       -0.16647   0.20624    0.03802   1.00
C6       -0.13714   0.17507    0.05146   1.00
C4       -0.07330   0.21477    0.06000   1.00
C5       -0.03041   0.28694    0.05377   1.00
H2       -0.03849   0.31557    0.06271   1.00
H2       0.01665    0.29949    0.05443   1.00
H2       -0.04177   0.29236    0.04010   1.00
C4       -0.17630   0.10571    0.05546   1.00
C5       -0.24757   0.05963    0.04672   1.00
H2       -0.24372   0.04223    0.03376   1.00
H2       -0.27330   0.02232    0.05580   1.00
H2       -0.27020   0.08546    0.04500   1.00
C3       -0.04870   0.18466    0.07326   1.00
H1       -0.00530   0.21096    0.07879   1.00
C3       -0.14804   0.07857    0.06977   1.00
H1       -0.17314   0.03266    0.07311   1.00
C2       -0.08630   0.11730    0.07845   1.00
C2       0.44554    0.84737    0.84601   1.00
C3       0.43747    0.84052    0.86599   1.00
H1       0.41380    0.79685    0.87145   1.00
C3       0.48165    0.91144    0.83836   1.00
H1       0.48877    0.91736    0.82444   1.00
C4       0.46291    0.89551    0.87891   1.00
C5       0.45396    0.88770    0.90179   1.00
H2       0.49009    0.88250    0.90754   1.00
H2       0.41092    0.84824    0.90489   1.00
H2       0.45533    0.92743    0.90741   1.00
C4       0.50833    0.96816    0.85075   1.00
C5       0.55113    0.04123    0.84191   1.00
H2       0.52217    0.06020    0.83963   1.00
H2       0.57145    0.03933    0.82935   1.00
H2       0.58620    0.06930    0.85134   1.00
C6       0.50020    0.96062    0.87135   1.00
C6       0.52953    0.02112    0.88479   1.00
C4       0.59337    0.04526    0.89333   1.00
C5       0.63626    0.01598    0.88710   1.00
H2       0.62818    0.97927    0.89604   1.00
H2       0.68332    0.05049    0.88776   1.00
H2       0.62490    0.99920    0.87343   1.00
C4       0.49037    0.05132    0.88879   1.00
C5       0.41910    0.02613    0.88005   1.00
H2       0.42295    0.04738    0.86709   1.00
H2       0.39337    0.03771    0.88913   1.00
H2       0.39647    0.97767    0.87833   1.00
C3       0.61797    0.09997    0.90659   1.00
H1       0.66137    0.11707    0.91212   1.00
C3       0.51863    0.10672    0.90310   1.00
H1       0.49353    0.12753    0.90644   1.00
C2       0.58037    0.12973    0.91178   1.00
C2       0.15263    0.59816    0.84601   1.00
C3       0.15948    0.59694    0.86599   1.00
H1       0.20315    0.61694    0.87145   1.00
C3       0.08856    0.57020    0.83836   1.00
H1       0.08264    0.57140    0.82444   1.00
C4       0.10449    0.56739    0.87891   1.00
C5       0.11230    0.56625    0.90179   1.00
H2       0.11750    0.60758    0.90754   1.00
H2       0.15176    0.56267    0.90489   1.00
H2       0.07257    0.52789    0.90741   1.00
C4       0.03184    0.54016    0.85075   1.00
C5       0.95877    0.50989    0.84191   1.00
H2       0.93980    0.46196    0.83963   1.00
H2       0.96067    0.53211    0.82935   1.00
H2       0.93070    0.51689    0.85134   1.00
C6       0.03938    0.53957    0.87135   1.00
C6       0.97888    0.50840    0.88479   1.00
C4       0.95474    0.54810    0.89333   1.00
C5       0.98402    0.62027    0.88710   1.00
H2       0.02073    0.64890    0.89604   1.00
H2       0.94951    0.63282    0.88776   1.00
H2       0.00080    0.62569    0.87343   1.00
C4       0.94868    0.43904    0.88879   1.00
C5       0.97387    0.39296    0.88005   1.00
H2       0.95262    0.37556    0.86709   1.00
H2       0.96229    0.35565    0.88913   1.00
H2       0.02233    0.41879    0.87833   1.00
C3       0.90003    0.51799    0.90659   1.00
H1       0.88293    0.54429    0.91212   1.00
C3       0.89328    0.41190    0.90310   1.00
H1       0.87247    0.36599    0.90644   1.00
C2       0.87027    0.45063    0.91178   1.00
C2       0.40184    0.55446    0.84601   1.00
C3       0.40306    0.56253    0.86599   1.00
H1       0.38306    0.58620    0.87145   1.00
C3       0.42980    0.51835    0.83836   1.00
H1       0.42860    0.51123    0.82444   1.00
C4       0.43261    0.53709    0.87891   1.00
C5       0.43375    0.54604    0.90179   1.00
H2       0.39242    0.50991    0.90754   1.00
H2       0.43733    0.58908    0.90489   1.00
H2       0.47211    0.54467    0.90741   1.00
C4       0.45984    0.49167    0.85075   1.00
C5       0.49011    0.44887    0.84191   1.00
H2       0.53804    0.47783    0.83963   1.00
H2       0.46789    0.42855    0.82935   1.00
H2       0.48311    0.41380    0.85134   1.00
C6       0.46043    0.49980    0.87135   1.00
C6       0.49160    0.47047    0.88479   1.00
C4       0.45190    0.40663    0.89333   1.00
C5       0.37973    0.36374    0.88710   1.00
H2       0.35110    0.37182    0.89604   1.00
H2       0.36718    0.31668    0.88776   1.00
H2       0.37431    0.37510    0.87343   1.00
C4       0.56096    0.50963    0.88879   1.00
C5       0.60704    0.58090    0.88005   1.00
H2       0.62444    0.57705    0.86709   1.00
H2       0.64435    0.60663    0.88913   1.00
H2       0.58121    0.60353    0.87833   1.00
C3       0.48201    0.38203    0.90659   1.00
H1       0.45571    0.33863    0.91212   1.00
C3       0.58810    0.48137    0.90310   1.00
H1       0.63401    0.50647    0.90644   1.00
C2       0.54937    0.41963    0.91178   1.00
C2       0.18071    0.11220    0.32065   1.00
C3       0.17386    0.10413    0.30067   1.00
H1       0.13019    0.08046    0.29521   1.00
C3       0.24478    0.14831    0.32830   1.00
H1       0.25070    0.15543    0.34222   1.00
C4       0.22885    0.12957    0.28775   1.00
C5       0.22104    0.12062    0.26487   1.00
H2       0.21584    0.15675    0.25912   1.00
H2       0.18158    0.07758    0.26177   1.00
H2       0.26077    0.12199    0.25925   1.00
C4       0.30150    0.17499    0.31591   1.00
C5       0.37457    0.21779    0.32475   1.00
H2       0.39354    0.18883    0.32703   1.00
H2       0.37267    0.23811    0.33731   1.00
H2       0.40264    0.25286    0.31532   1.00
C6       0.29396    0.16686    0.29531   1.00
C6       0.35446    0.19619    0.28187   1.00
C4       0.37860    0.26003    0.27333   1.00
C5       0.34932    0.30292    0.27956   1.00
H2       0.31261    0.29484    0.27062   1.00
H2       0.38383    0.34998    0.27890   1.00
H2       0.33254    0.29156    0.29323   1.00
C4       0.38466    0.15703    0.27787   1.00
C5       0.35947    0.08576    0.28661   1.00
H2       0.38072    0.08961    0.29957   1.00
H2       0.37105    0.06003    0.27753   1.00
H2       0.31101    0.06313    0.28833   1.00
C3       0.43331    0.28463    0.26007   1.00
H1       0.45041    0.32803    0.25454   1.00
C3       0.44006    0.18529    0.26356   1.00
H1       0.46087    0.16019    0.26022   1.00
C2       0.46307    0.24703    0.25488   1.00
C2       0.93150    0.81929    0.32065   1.00
C3       0.93028    0.82614    0.30067   1.00
H1       0.95028    0.86981    0.29521   1.00
C3       0.90354    0.75522    0.32830   1.00
H1       0.90474    0.74930    0.34222   1.00
C4       0.90073    0.77115    0.28775   1.00
C5       0.89959    0.77896    0.26487   1.00
H2       0.94092    0.78416    0.25912   1.00
H2       0.89601    0.81842    0.26177   1.00
H2       0.86123    0.73923    0.25925   1.00
C4       0.87350    0.69850    0.31591   1.00
C5       0.84323    0.62543    0.32475   1.00
H2       0.79530    0.60646    0.32703   1.00
H2       0.86545    0.62733    0.33731   1.00
H2       0.85023    0.59736    0.31532   1.00
C6       0.87291    0.70604    0.29531   1.00
C6       0.84174    0.64554    0.28187   1.00
C4       0.88144    0.62140    0.27333   1.00
C5       0.95361    0.65068    0.27956   1.00
H2       0.98224    0.68739    0.27062   1.00
H2       0.96616    0.61617    0.27890   1.00
H2       0.95903    0.66746    0.29323   1.00
C4       0.77238    0.61534    0.27787   1.00
C5       0.72630    0.64053    0.28661   1.00
H2       0.70890    0.61928    0.29957   1.00
H2       0.68899    0.62895    0.27753   1.00
H2       0.75213    0.68899    0.28833   1.00
C3       0.85133    0.56669    0.26007   1.00
H1       0.87763    0.54959    0.25454   1.00
C3       0.74524    0.55994    0.26356   1.00
H1       0.69933    0.53913    0.26022   1.00
C2       0.78397    0.53693    0.25488   1.00
C2       0.88780    0.06850    0.32065   1.00
C3       0.89587    0.06972    0.30067   1.00
H1       0.91954    0.04972    0.29521   1.00
C3       0.85169    0.09646    0.32830   1.00
H1       0.84457    0.09526    0.34222   1.00
C4       0.87043    0.09927    0.28775   1.00
C5       0.87938    0.10041    0.26487   1.00
H2       0.84325    0.05908    0.25912   1.00
H2       0.92242    0.10399    0.26177   1.00
H2       0.87801    0.13877    0.25925   1.00
C4       0.82501    0.12650    0.31591   1.00
C5       0.78221    0.15677    0.32475   1.00
H2       0.81117    0.20470    0.32703   1.00
H2       0.76189    0.13455    0.33731   1.00
H2       0.74714    0.14977    0.31532   1.00
C6       0.83314    0.12709    0.29531   1.00
C6       0.80381    0.15826    0.28187   1.00
C4       0.73997    0.11856    0.27333   1.00
C5       0.69708    0.04639    0.27956   1.00
H2       0.70516    0.01776    0.27062   1.00
H2       0.65002    0.03384    0.27890   1.00
H2       0.70844    0.04097    0.29323   1.00
C4       0.84297    0.22762    0.27787   1.00
C5       0.91424    0.27370    0.28661   1.00
H2       0.91039    0.29110    0.29957   1.00
H2       0.93997    0.31101    0.27753   1.00
H2       0.93687    0.24787    0.28833   1.00
C3       0.71537    0.14867    0.26007   1.00
H1       0.67197    0.12237    0.25454   1.00
C3       0.81471    0.25476    0.26356   1.00
H1       0.83981    0.30067    0.26022   1.00
C2       0.75297    0.21603    0.25488   1.00
C2       0.88780    0.81929    0.82065   1.00
C3       0.89587    0.82614    0.80067   1.00
H1       0.91954    0.86981    0.79521   1.00
C3       0.85169    0.75522    0.82830   1.00
H1       0.84457    0.74930    0.84222   1.00
C4       0.87043    0.77115    0.78775   1.00
C5       0.87938    0.77896    0.76487   1.00
H2       0.84325    0.78416    0.75912   1.00
H2       0.92242    0.81842    0.76177   1.00
H2       0.87801    0.73923    0.75925   1.00
C4       0.82501    0.69850    0.81591   1.00
C5       0.78221    0.62543    0.82475   1.00
H2       0.81117    0.60646    0.82703   1.00
H2       0.76189    0.62733    0.83731   1.00
H2       0.74714    0.59736    0.81532   1.00
C6       0.83314    0.70604    0.79531   1.00
C6       0.80381    0.64554    0.78187   1.00
C4       0.73997    0.62140    0.77333   1.00
C5       0.69708    0.65068    0.77956   1.00
H2       0.70516    0.68739    0.77062   1.00
H2       0.65002    0.61617    0.77890   1.00
H2       0.70844    0.66746    0.79323   1.00
C4       0.84297    0.61534    0.77787   1.00
C5       0.91424    0.64053    0.78661   1.00
H2       0.91039    0.61928    0.79957   1.00
H2       0.93997    0.62895    0.77753   1.00
H2       0.93687    0.68899    0.78833   1.00
C3       0.71537    0.56669    0.76007   1.00
H1       0.67197    0.54959    0.75454   1.00
C3       0.81471    0.55994    0.76356   1.00
H1       0.83981    0.53913    0.76022   1.00
C2       0.75297    0.53693    0.75488   1.00
C2       0.18071    0.06850    0.82065   1.00
C3       0.17386    0.06972    0.80067   1.00
H1       0.13019    0.04972    0.79521   1.00
C3       0.24478    0.09646    0.82830   1.00
H1       0.25070    0.09526    0.84222   1.00
C4       0.22885    0.09927    0.78775   1.00
C5       0.22104    0.10041    0.76487   1.00
H2       0.21584    0.05908    0.75912   1.00
H2       0.18158    0.10399    0.76177   1.00
H2       0.26077    0.13877    0.75925   1.00
C4       0.30150    0.12650    0.81591   1.00
C5       0.37457    0.15677    0.82475   1.00
H2       0.39354    0.20470    0.82703   1.00
H2       0.37267    0.13455    0.83731   1.00
H2       0.40264    0.14977    0.81532   1.00
C6       0.29396    0.12709    0.79531   1.00
C6       0.35446    0.15826    0.78187   1.00
C4       0.37860    0.11856    0.77333   1.00
C5       0.34932    0.04639    0.77956   1.00
H2       0.31261    0.01776    0.77062   1.00
H2       0.38383    0.03384    0.77890   1.00
H2       0.33254    0.04097    0.79323   1.00
C4       0.38466    0.22762    0.77787   1.00
C5       0.35947    0.27370    0.78661   1.00
H2       0.38072    0.29110    0.79957   1.00
H2       0.37105    0.31101    0.77753   1.00
H2       0.31101    0.24787    0.78833   1.00
C3       0.43331    0.14867    0.76007   1.00
H1       0.45041    0.12237    0.75454   1.00
C3       0.44006    0.25476    0.76356   1.00
H1       0.46087    0.30067    0.76022   1.00
C2       0.46307    0.21603    0.75488   1.00
C2       0.93150    0.11220    0.82065   1.00
C3       0.93028    0.10413    0.80067   1.00
H1       0.95028    0.08046    0.79521   1.00
C3       0.90354    0.14831    0.82830   1.00
H1       0.90474    0.15543    0.84222   1.00
C4       0.90073    0.12957    0.78775   1.00
C5       0.89959    0.12062    0.76487   1.00
H2       0.94092    0.15675    0.75912   1.00
H2       0.89601    0.07758    0.76177   1.00
H2       0.86123    0.12199    0.75925   1.00
C4       0.87350    0.17499    0.81591   1.00
C5       0.84323    0.21779    0.82475   1.00
H2       0.79530    0.18883    0.82703   1.00
H2       0.86545    0.23811    0.83731   1.00
H2       0.85023    0.25286    0.81532   1.00
C6       0.87291    0.16686    0.79531   1.00
C6       0.84174    0.19619    0.78187   1.00
C4       0.88144    0.26003    0.77333   1.00
C5       0.95361    0.30292    0.77956   1.00
H2       0.98224    0.29484    0.77062   1.00
H2       0.96616    0.34998    0.77890   1.00
H2       0.95903    0.29156    0.79323   1.00
C4       0.77238    0.15703    0.77787   1.00
C5       0.72630    0.08576    0.78661   1.00
H2       0.70890    0.08961    0.79957   1.00
H2       0.68899    0.06003    0.77753   1.00
H2       0.75213    0.06313    0.78833   1.00
C3       0.85133    0.28463    0.76007   1.00
H1       0.87763    0.32803    0.75454   1.00
C3       0.74524    0.18529    0.76356   1.00
H1       0.69933    0.16019    0.76022   1.00
C2       0.78397    0.24703    0.75488   1.00
C2       0.15263    0.55446    0.34601   1.00
C3       0.15948    0.56253    0.36599   1.00
H1       0.20315    0.58620    0.37145   1.00
C3       0.08856    0.51835    0.33836   1.00
H1       0.08264    0.51123    0.32444   1.00
C4       0.10449    0.53709    0.37891   1.00
C5       0.11230    0.54604    0.40179   1.00
H2       0.11750    0.50991    0.40754   1.00
H2       0.15176    0.58908    0.40489   1.00
H2       0.07257    0.54467    0.40741   1.00
C4       0.03184    0.49167    0.35075   1.00
C5       0.95877    0.44887    0.34191   1.00
H2       0.93980    0.47783    0.33963   1.00
H2       0.96067    0.42855    0.32935   1.00
H2       0.93070    0.41380    0.35134   1.00
C6       0.03938    0.49980    0.37135   1.00
C6       0.97888    0.47047    0.38479   1.00
C4       0.95474    0.40663    0.39333   1.00
C5       0.98402    0.36374    0.38710   1.00
H2       0.02073    0.37182    0.39604   1.00
H2       0.94951    0.31668    0.38776   1.00
H2       0.00080    0.37510    0.37343   1.00
C4       0.94868    0.50963    0.38879   1.00
C5       0.97387    0.58090    0.38005   1.00
H2       0.95262    0.57705    0.36709   1.00
H2       0.96229    0.60663    0.38913   1.00
H2       0.02233    0.60353    0.37833   1.00
C3       0.90003    0.38203    0.40659   1.00
H1       0.88293    0.33863    0.41212   1.00
C3       0.89328    0.48137    0.40310   1.00
H1       0.87247    0.50647    0.40644   1.00
C2       0.87027    0.41963    0.41178   1.00
C2       0.40184    0.84737    0.34601   1.00
C3       0.40306    0.84052    0.36599   1.00
H1       0.38306    0.79685    0.37145   1.00
C3       0.42980    0.91144    0.33836   1.00
H1       0.42860    0.91736    0.32444   1.00
C4       0.43261    0.89551    0.37891   1.00
C5       0.43375    0.88770    0.40179   1.00
H2       0.39242    0.88250    0.40754   1.00
H2       0.43733    0.84824    0.40489   1.00
H2       0.47211    0.92743    0.40741   1.00
C4       0.45984    0.96816    0.35075   1.00
C5       0.49011    0.04123    0.34191   1.00
H2       0.53804    0.06020    0.33963   1.00
H2       0.46789    0.03933    0.32935   1.00
H2       0.48311    0.06930    0.35134   1.00
C6       0.46043    0.96062    0.37135   1.00
C6       0.49160    0.02112    0.38479   1.00
C4       0.45190    0.04526    0.39333   1.00
C5       0.37973    0.01598    0.38710   1.00
H2       0.35110    0.97927    0.39604   1.00
H2       0.36718    0.05049    0.38776   1.00
H2       0.37431    0.99920    0.37343   1.00
C4       0.56096    0.05132    0.38879   1.00
C5       0.60704    0.02613    0.38005   1.00
H2       0.62444    0.04738    0.36709   1.00
H2       0.64435    0.03771    0.38913   1.00
H2       0.58121    0.97767    0.37833   1.00
C3       0.48201    0.09997    0.40659   1.00
H1       0.45571    0.11707    0.41212   1.00
C3       0.58810    0.10672    0.40310   1.00
H1       0.63401    0.12753    0.40644   1.00
C2       0.54937    0.12973    0.41178   1.00
C2       0.44554    0.59816    0.34601   1.00
C3       0.43747    0.59694    0.36599   1.00
H1       0.41380    0.61694    0.37145   1.00
C3       0.48165    0.57020    0.33836   1.00
H1       0.48877    0.57140    0.32444   1.00
C4       0.46291    0.56739    0.37891   1.00
C5       0.45396    0.56625    0.40179   1.00
H2       0.49009    0.60758    0.40754   1.00
H2       0.41092    0.56267    0.40489   1.00
H2       0.45533    0.52789    0.40741   1.00
C4       0.50833    0.54016    0.35075   1.00
C5       0.55113    0.50989    0.34191   1.00
H2       0.52217    0.46196    0.33963   1.00
H2       0.57145    0.53211    0.32935   1.00
H2       0.58620    0.51689    0.35134   1.00
C6       0.50020    0.53957    0.37135   1.00
C6       0.52953    0.50840    0.38479   1.00
C4       0.59337    0.54810    0.39333   1.00
C5       0.63626    0.62027    0.38710   1.00
H2       0.62818    0.64890    0.39604   1.00
H2       0.68332    0.63282    0.38776   1.00
H2       0.62490    0.62569    0.37343   1.00
C4       0.49037    0.43904    0.38879   1.00
C5       0.41910    0.39296    0.38005   1.00
H2       0.42295    0.37556    0.36709   1.00
H2       0.39337    0.35565    0.38913   1.00
H2       0.39647    0.41879    0.37833   1.00
C3       0.61797    0.51799    0.40659   1.00
H1       0.66137    0.54429    0.41212   1.00
C3       0.51863    0.41190    0.40310   1.00
H1       0.49353    0.36599    0.40644   1.00
C2       0.58037    0.45063    0.41178   1.00
C2       0.11220    0.18071    0.17935   1.00
C3       0.10413    0.17386    0.19933   1.00
H1       0.08046    0.13019    0.20479   1.00
C3       0.14831    0.24478    0.17170   1.00
H1       0.15543    0.25070    0.15778   1.00
C4       0.12957    0.22885    0.21225   1.00
C5       0.12062    0.22104    0.23513   1.00
H2       0.15675    0.21584    0.24088   1.00
H2       0.07758    0.18158    0.23823   1.00
H2       0.12199    0.26077    0.24075   1.00
C4       0.17499    0.30150    0.18409   1.00
C5       0.21779    0.37457    0.17525   1.00
H2       0.18883    0.39354    0.17297   1.00
H2       0.23811    0.37267    0.16269   1.00
H2       0.25286    0.40264    0.18468   1.00
C6       0.16686    0.29396    0.20469   1.00
C6       0.19619    0.35446    0.21813   1.00
C4       0.26003    0.37860    0.22667   1.00
C5       0.30292    0.34932    0.22044   1.00
H2       0.29484    0.31261    0.22938   1.00
H2       0.34998    0.38383    0.22110   1.00
H2       0.29156    0.33254    0.20677   1.00
C4       0.15703    0.38466    0.22213   1.00
C5       0.08576    0.35947    0.21339   1.00
H2       0.08961    0.38072    0.20043   1.00
H2       0.06003    0.37105    0.22247   1.00
H2       0.06313    0.31101    0.21167   1.00
C3       0.28463    0.43331    0.23993   1.00
H1       0.32803    0.45041    0.24546   1.00
C3       0.18529    0.44006    0.23644   1.00
H1       0.16019    0.46087    0.23978   1.00
C2       0.24703    0.46307    0.24512   1.00
C2       0.81929    0.93150    0.17935   1.00
C3       0.82614    0.93028    0.19933   1.00
H1       0.86981    0.95028    0.20479   1.00
C3       0.75522    0.90354    0.17170   1.00
H1       0.74930    0.90474    0.15778   1.00
C4       0.77115    0.90073    0.21225   1.00
C5       0.77896    0.89959    0.23513   1.00
H2       0.78416    0.94092    0.24088   1.00
H2       0.81842    0.89601    0.23823   1.00
H2       0.73923    0.86123    0.24075   1.00
C4       0.69850    0.87350    0.18409   1.00
C5       0.62543    0.84323    0.17525   1.00
H2       0.60646    0.79530    0.17297   1.00
H2       0.62733    0.86545    0.16269   1.00
H2       0.59736    0.85023    0.18468   1.00
C6       0.70604    0.87291    0.20469   1.00
C6       0.64554    0.84174    0.21813   1.00
C4       0.62140    0.88144    0.22667   1.00
C5       0.65068    0.95361    0.22044   1.00
H2       0.68739    0.98224    0.22938   1.00
H2       0.61617    0.96616    0.22110   1.00
H2       0.66746    0.95903    0.20677   1.00
C4       0.61534    0.77238    0.22213   1.00
C5       0.64053    0.72630    0.21339   1.00
H2       0.61928    0.70890    0.20043   1.00
H2       0.62895    0.68899    0.22247   1.00
H2       0.68899    0.75213    0.21167   1.00
C3       0.56669    0.85133    0.23993   1.00
H1       0.54959    0.87763    0.24546   1.00
C3       0.55994    0.74524    0.23644   1.00
H1       0.53913    0.69933    0.23978   1.00
C2       0.53693    0.78397    0.24512   1.00
C2       0.06850    0.88780    0.17935   1.00
C3       0.06972    0.89587    0.19933   1.00
H1       0.04972    0.91954    0.20479   1.00
C3       0.09646    0.85169    0.17170   1.00
H1       0.09526    0.84457    0.15778   1.00
C4       0.09927    0.87043    0.21225   1.00
C5       0.10041    0.87938    0.23513   1.00
H2       0.05908    0.84325    0.24088   1.00
H2       0.10399    0.92242    0.23823   1.00
H2       0.13877    0.87801    0.24075   1.00
C4       0.12650    0.82501    0.18409   1.00
C5       0.15677    0.78221    0.17525   1.00
H2       0.20470    0.81117    0.17297   1.00
H2       0.13455    0.76189    0.16269   1.00
H2       0.14977    0.74714    0.18468   1.00
C6       0.12709    0.83314    0.20469   1.00
C6       0.15826    0.80381    0.21813   1.00
C4       0.11856    0.73997    0.22667   1.00
C5       0.04639    0.69708    0.22044   1.00
H2       0.01776    0.70516    0.22938   1.00
H2       0.03384    0.65002    0.22110   1.00
H2       0.04097    0.70844    0.20677   1.00
C4       0.22762    0.84297    0.22213   1.00
C5       0.27370    0.91424    0.21339   1.00
H2       0.29110    0.91039    0.20043   1.00
H2       0.31101    0.93997    0.22247   1.00
H2       0.24787    0.93687    0.21167   1.00
C3       0.14867    0.71537    0.23993   1.00
H1       0.12237    0.67197    0.24546   1.00
C3       0.25476    0.81471    0.23644   1.00
H1       0.30067    0.83981    0.23978   1.00
C2       0.21603    0.75297    0.24512   1.00
C2       0.84737    0.44554    0.65399   1.00
C3       0.84052    0.43747    0.63401   1.00
H1       0.79685    0.41380    0.62855   1.00
C3       0.91144    0.48165    0.66164   1.00
H1       0.91736    0.48877    0.67556   1.00
C4       0.89551    0.46291    0.62109   1.00
C5       0.88770    0.45396    0.59821   1.00
H2       0.88250    0.49009    0.59246   1.00
H2       0.84824    0.41092    0.59511   1.00
H2       0.92743    0.45533    0.59259   1.00
C4       0.96816    0.50833    0.64925   1.00
C5       0.04123    0.55113    0.65809   1.00
H2       0.06020    0.52217    0.66037   1.00
H2       0.03933    0.57145    0.67065   1.00
H2       0.06930    0.58620    0.64866   1.00
C6       0.96062    0.50020    0.62865   1.00
C6       0.02112    0.52953    0.61521   1.00
C4       0.04526    0.59337    0.60667   1.00
C5       0.01598    0.63626    0.61290   1.00
H2       0.97927    0.62818    0.60396   1.00
H2       0.05049    0.68332    0.61224   1.00
H2       0.99920    0.62490    0.62657   1.00
C4       0.05132    0.49037    0.61121   1.00
C5       0.02613    0.41910    0.61995   1.00
H2       0.04738    0.42295    0.63291   1.00
H2       0.03771    0.39337    0.61087   1.00
H2       0.97767    0.39647    0.62167   1.00
C3       0.09997    0.61797    0.59341   1.00
H1       0.11707    0.66137    0.58788   1.00
C3       0.10672    0.51863    0.59690   1.00
H1       0.12753    0.49353    0.59356   1.00
C2       0.12973    0.58037    0.58822   1.00
C2       0.59816    0.15263    0.65399   1.00
C3       0.59694    0.15948    0.63401   1.00
H1       0.61694    0.20315    0.62855   1.00
C3       0.57020    0.08856    0.66164   1.00
H1       0.57140    0.08264    0.67556   1.00
C4       0.56739    0.10449    0.62109   1.00
C5       0.56625    0.11230    0.59821   1.00
H2       0.60758    0.11750    0.59246   1.00
H2       0.56267    0.15176    0.59511   1.00
H2       0.52789    0.07257    0.59259   1.00
C4       0.54016    0.03184    0.64925   1.00
C5       0.50989    0.95877    0.65809   1.00
H2       0.46196    0.93980    0.66037   1.00
H2       0.53211    0.96067    0.67065   1.00
H2       0.51689    0.93070    0.64866   1.00
C6       0.53957    0.03938    0.62865   1.00
C6       0.50840    0.97888    0.61521   1.00
C4       0.54810    0.95474    0.60667   1.00
C5       0.62027    0.98402    0.61290   1.00
H2       0.64890    0.02073    0.60396   1.00
H2       0.63282    0.94951    0.61224   1.00
H2       0.62569    0.00080    0.62657   1.00
C4       0.43904    0.94868    0.61121   1.00
C5       0.39296    0.97387    0.61995   1.00
H2       0.37556    0.95262    0.63291   1.00
H2       0.35565    0.96229    0.61087   1.00
H2       0.41879    0.02233    0.62167   1.00
C3       0.51799    0.90003    0.59341   1.00
H1       0.54429    0.88293    0.58788   1.00
C3       0.41190    0.89328    0.59690   1.00
H1       0.36599    0.87247    0.59356   1.00
C2       0.45063    0.87027    0.58822   1.00
C2       0.55446    0.40184    0.65399   1.00
C3       0.56253    0.40306    0.63401   1.00
H1       0.58620    0.38306    0.62855   1.00
C3       0.51835    0.42980    0.66164   1.00
H1       0.51123    0.42860    0.67556   1.00
C4       0.53709    0.43261    0.62109   1.00
C5       0.54604    0.43375    0.59821   1.00
H2       0.50991    0.39242    0.59246   1.00
H2       0.58908    0.43733    0.59511   1.00
H2       0.54467    0.47211    0.59259   1.00
C4       0.49167    0.45984    0.64925   1.00
C5       0.44887    0.49011    0.65809   1.00
H2       0.47783    0.53804    0.66037   1.00
H2       0.42855    0.46789    0.67065   1.00
H2       0.41380    0.48311    0.64866   1.00
C6       0.49980    0.46043    0.62865   1.00
C6       0.47047    0.49160    0.61521   1.00
C4       0.40663    0.45190    0.60667   1.00
C5       0.36374    0.37973    0.61290   1.00
H2       0.37182    0.35110    0.60396   1.00
H2       0.31668    0.36718    0.61224   1.00
H2       0.37510    0.37431    0.62657   1.00
C4       0.50963    0.56096    0.61121   1.00
C5       0.58090    0.60704    0.61995   1.00
H2       0.57705    0.62444    0.63291   1.00
H2       0.60663    0.64435    0.61087   1.00
H2       0.60353    0.58121    0.62167   1.00
C3       0.38203    0.48201    0.59341   1.00
H1       0.33863    0.45571    0.58788   1.00
C3       0.48137    0.58810    0.59690   1.00
H1       0.50647    0.63401    0.59356   1.00
C2       0.41963    0.54937    0.58822   1.00
C2       0.55446    0.15263    0.15399   1.00
C3       0.56253    0.15948    0.13401   1.00
H1       0.58620    0.20315    0.12855   1.00
C3       0.51835    0.08856    0.16164   1.00
H1       0.51123    0.08264    0.17556   1.00
C4       0.53709    0.10449    0.12109   1.00
C5       0.54604    0.11230    0.09821   1.00
H2       0.50991    0.11750    0.09246   1.00
H2       0.58908    0.15176    0.09511   1.00
H2       0.54467    0.07257    0.09259   1.00
C4       0.49167    0.03184    0.14925   1.00
C5       0.44887    0.95877    0.15809   1.00
H2       0.47783    0.93980    0.16037   1.00
H2       0.42855    0.96067    0.17065   1.00
H2       0.41380    0.93070    0.14866   1.00
C6       0.49980    0.03938    0.12865   1.00
C6       0.47047    0.97888    0.11521   1.00
C4       0.40663    0.95474    0.10667   1.00
C5       0.36374    0.98402    0.11290   1.00
H2       0.37182    0.02073    0.10396   1.00
H2       0.31668    0.94951    0.11224   1.00
H2       0.37510    0.00080    0.12657   1.00
C4       0.50963    0.94868    0.11121   1.00
C5       0.58090    0.97387    0.11995   1.00
H2       0.57705    0.95262    0.13291   1.00
H2       0.60663    0.96229    0.11087   1.00
H2       0.60353    0.02233    0.12167   1.00
C3       0.38203    0.90003    0.09341   1.00
H1       0.33863    0.88293    0.08788   1.00
C3       0.48137    0.89328    0.09690   1.00
H1       0.50647    0.87247    0.09356   1.00
C2       0.41963    0.87027    0.08822   1.00
C2       0.84737    0.40184    0.15399   1.00
C3       0.84052    0.40306    0.13401   1.00
H1       0.79685    0.38306    0.12855   1.00
C3       0.91144    0.42980    0.16164   1.00
H1       0.91736    0.42860    0.17556   1.00
C4       0.89551    0.43261    0.12109   1.00
C5       0.88770    0.43375    0.09821   1.00
H2       0.88250    0.39242    0.09246   1.00
H2       0.84824    0.43733    0.09511   1.00
H2       0.92743    0.47211    0.09259   1.00
C4       0.96816    0.45984    0.14925   1.00
C5       0.04123    0.49011    0.15809   1.00
H2       0.06020    0.53804    0.16037   1.00
H2       0.03933    0.46789    0.17065   1.00
H2       0.06930    0.48311    0.14866   1.00
C6       0.96062    0.46043    0.12865   1.00
C6       0.02112    0.49160    0.11521   1.00
C4       0.04526    0.45190    0.10667   1.00
C5       0.01598    0.37973    0.11290   1.00
H2       0.97927    0.35110    0.10396   1.00
H2       0.05049    0.36718    0.11224   1.00
H2       0.99920    0.37431    0.12657   1.00
C4       0.05132    0.56096    0.11121   1.00
C5       0.02613    0.60704    0.11995   1.00
H2       0.04738    0.62444    0.13291   1.00
H2       0.03771    0.64435    0.11087   1.00
H2       0.97767    0.58121    0.12167   1.00
C3       0.09997    0.48201    0.09341   1.00
H1       0.11707    0.45571    0.08788   1.00
C3       0.10672    0.58810    0.09690   1.00
H1       0.12753    0.63401    0.09356   1.00
C2       0.12973    0.54937    0.08822   1.00
C2       0.59816    0.44554    0.15399   1.00
C3       0.59694    0.43747    0.13401   1.00
H1       0.61694    0.41380    0.12855   1.00
C3       0.57020    0.48165    0.16164   1.00
H1       0.57140    0.48877    0.17556   1.00
C4       0.56739    0.46291    0.12109   1.00
C5       0.56625    0.45396    0.09821   1.00
H2       0.60758    0.49009    0.09246   1.00
H2       0.56267    0.41092    0.09511   1.00
H2       0.52789    0.45533    0.09259   1.00
C4       0.54016    0.50833    0.14925   1.00
C5       0.50989    0.55113    0.15809   1.00
H2       0.46196    0.52217    0.16037   1.00
H2       0.53211    0.57145    0.17065   1.00
H2       0.51689    0.58620    0.14866   1.00
C6       0.53957    0.50020    0.12865   1.00
C6       0.50840    0.52953    0.11521   1.00
C4       0.54810    0.59337    0.10667   1.00
C5       0.62027    0.63626    0.11290   1.00
H2       0.64890    0.62818    0.10396   1.00
H2       0.63282    0.68332    0.11224   1.00
H2       0.62569    0.62490    0.12657   1.00
C4       0.43904    0.49037    0.11121   1.00
C5       0.39296    0.41910    0.11995   1.00
H2       0.37556    0.42295    0.13291   1.00
H2       0.35565    0.39337    0.11087   1.00
H2       0.41879    0.39647    0.12167   1.00
C3       0.51799    0.61797    0.09341   1.00
H1       0.54429    0.66137    0.08788   1.00
C3       0.41190    0.51863    0.09690   1.00
H1       0.36599    0.49353    0.09356   1.00
C2       0.45063    0.58037    0.08822   1.00
C2       0.81929    0.88780    0.67935   1.00
C3       0.82614    0.89587    0.69933   1.00
H1       0.86981    0.91954    0.70479   1.00
C3       0.75522    0.85169    0.67170   1.00
H1       0.74930    0.84457    0.65778   1.00
C4       0.77115    0.87043    0.71225   1.00
C5       0.77896    0.87938    0.73513   1.00
H2       0.78416    0.84325    0.74088   1.00
H2       0.81842    0.92242    0.73823   1.00
H2       0.73923    0.87801    0.74075   1.00
C4       0.69850    0.82501    0.68409   1.00
C5       0.62543    0.78221    0.67525   1.00
H2       0.60646    0.81117    0.67297   1.00
H2       0.62733    0.76189    0.66269   1.00
H2       0.59736    0.74714    0.68468   1.00
C6       0.70604    0.83314    0.70469   1.00
C6       0.64554    0.80381    0.71813   1.00
C4       0.62140    0.73997    0.72667   1.00
C5       0.65068    0.69708    0.72044   1.00
H2       0.68739    0.70516    0.72938   1.00
H2       0.61617    0.65002    0.72110   1.00
H2       0.66746    0.70844    0.70677   1.00
C4       0.61534    0.84297    0.72213   1.00
C5       0.64053    0.91424    0.71339   1.00
H2       0.61928    0.91039    0.70043   1.00
H2       0.62895    0.93997    0.72247   1.00
H2       0.68899    0.93687    0.71167   1.00
C3       0.56669    0.71537    0.73993   1.00
H1       0.54959    0.67197    0.74546   1.00
C3       0.55994    0.81471    0.73644   1.00
H1       0.53913    0.83981    0.73978   1.00
C2       0.53693    0.75297    0.74512   1.00
C2       0.06850    0.18071    0.67935   1.00
C3       0.06972    0.17386    0.69933   1.00
H1       0.04972    0.13019    0.70479   1.00
C3       0.09646    0.24478    0.67170   1.00
H1       0.09526    0.25070    0.65778   1.00
C4       0.09927    0.22885    0.71225   1.00
C5       0.10041    0.22104    0.73513   1.00
H2       0.05908    0.21584    0.74088   1.00
H2       0.10399    0.18158    0.73823   1.00
H2       0.13877    0.26077    0.74075   1.00
C4       0.12650    0.30150    0.68409   1.00
C5       0.15677    0.37457    0.67525   1.00
H2       0.20470    0.39354    0.67297   1.00
H2       0.13455    0.37267    0.66269   1.00
H2       0.14977    0.40264    0.68468   1.00
C6       0.12709    0.29396    0.70469   1.00
C6       0.15826    0.35446    0.71813   1.00
C4       0.11856    0.37860    0.72667   1.00
C5       0.04639    0.34932    0.72044   1.00
H2       0.01776    0.31261    0.72938   1.00
H2       0.03384    0.38383    0.72110   1.00
H2       0.04097    0.33254    0.70677   1.00
C4       0.22762    0.38466    0.72213   1.00
C5       0.27370    0.35947    0.71339   1.00
H2       0.29110    0.38072    0.70043   1.00
H2       0.31101    0.37105    0.72247   1.00
H2       0.24787    0.31101    0.71167   1.00
C3       0.14867    0.43331    0.73993   1.00
H1       0.12237    0.45041    0.74546   1.00
C3       0.25476    0.44006    0.73644   1.00
H1       0.30067    0.46087    0.73978   1.00
C2       0.21603    0.46307    0.74512   1.00
C2       0.11220    0.93150    0.67935   1.00
C3       0.10413    0.93028    0.69933   1.00
H1       0.08046    0.95028    0.70479   1.00
C3       0.14831    0.90354    0.67170   1.00
H1       0.15543    0.90474    0.65778   1.00
C4       0.12957    0.90073    0.71225   1.00
C5       0.12062    0.89959    0.73513   1.00
H2       0.15675    0.94092    0.74088   1.00
H2       0.07758    0.89601    0.73823   1.00
H2       0.12199    0.86123    0.74075   1.00
C4       0.17499    0.87350    0.68409   1.00
C5       0.21779    0.84323    0.67525   1.00
H2       0.18883    0.79530    0.67297   1.00
H2       0.23811    0.86545    0.66269   1.00
H2       0.25286    0.85023    0.68468   1.00
C6       0.16686    0.87291    0.70469   1.00
C6       0.19619    0.84174    0.71813   1.00
C4       0.26003    0.88144    0.72667   1.00
C5       0.30292    0.95361    0.72044   1.00
H2       0.29484    0.98224    0.72938   1.00
H2       0.34998    0.96616    0.72110   1.00
H2       0.29156    0.95903    0.70677   1.00
C4       0.15703    0.77238    0.72213   1.00
C5       0.08576    0.72630    0.71339   1.00
H2       0.08961    0.70890    0.70043   1.00
H2       0.06003    0.68899    0.72247   1.00
H2       0.06313    0.75213    0.71167   1.00
C3       0.28463    0.85133    0.73993   1.00
H1       0.32803    0.87763    0.74546   1.00
C3       0.18529    0.74524    0.73644   1.00
H1       0.16019    0.69933    0.73978   1.00
C2       0.24703    0.78397    0.74512   1.00
