data_IRMOF10_interpen_symm_ligand3lp_label_i_1.

_audit_creation_method             'generated by an auxiliary program of Tobunporous'

_symmetry_space_group_name_H-M     'P 1'
_symmetry_Int_Tables_number        1
_symmetry_cell_setting             triclinic

_cell_length_a                    22.6523
_cell_length_b                    22.6523
_cell_length_c                    65.9502
_cell_angle_alpha                 90.0000
_cell_angle_beta                  90.0000
_cell_angle_gamma                 120.0000

loop_
_atom_site_label
_atom_site_fract_x
_atom_site_fract_y
_atom_site_fract_z
_atom_site_occupancy
O1       0.00000    -0.00000   0.62500   1.00
Zn1      0.00000    -0.00000   0.59589   1.00
Zn1      0.94848    1.04288    0.63392   1.00
Zn1      0.09439    0.05152    0.63392   1.00
Zn1      -0.04288   0.90561    0.63392   1.00
O2       0.93860    0.02610    0.58587   1.00
O2       0.08750    0.06140    0.58587   1.00
O2       -0.02610   0.91250    0.58587   1.00
O2       0.91305    0.07161    0.61181   1.00
O2       0.00462    0.12022    0.65110   1.00
O2       0.87413    0.98074    0.65071   1.00
O2       0.15856    0.08695    0.61181   1.00
O2       0.10660    0.12587    0.65071   1.00
O2       0.11559    0.99538    0.65110   1.00
O2       -0.07161   0.84144    0.61181   1.00
O2       0.87978    0.88441    0.65110   1.00
O2       0.01926    0.89340    0.65071   1.00
C1       0.91390    0.06020    0.59358   1.00
C1       0.14630    0.08610    0.59358   1.00
C1       -0.06020   0.85370    0.59358   1.00
C1       0.06663    0.14397    0.65673   1.00
C1       0.85603    0.92267    0.65673   1.00
C1       0.07733    0.93337    0.65673   1.00
O1       -0.00000   0.00000    0.87500   1.00
Zn1      -0.00000   0.00000    0.90411   1.00
Zn1      1.04288    0.94848    0.86608   1.00
Zn1      0.05152    0.09439    0.86608   1.00
Zn1      0.90561    -0.04288   0.86608   1.00
O2       0.02610    0.93860    0.91413   1.00
O2       0.06140    0.08750    0.91413   1.00
O2       0.91250    -0.02610   0.91413   1.00
O2       0.07161    0.91305    0.88819   1.00
O2       0.12022    0.00462    0.84890   1.00
O2       0.98074    0.87413    0.84929   1.00
O2       0.08695    0.15856    0.88819   1.00
O2       0.12587    0.10660    0.84929   1.00
O2       0.99538    0.11559    0.84890   1.00
O2       0.84144    -0.07161   0.88819   1.00
O2       0.88441    0.87978    0.84890   1.00
O2       0.89340    0.01926    0.84929   1.00
C1       0.06020    0.91390    0.90642   1.00
C1       0.08610    0.14630    0.90642   1.00
C1       0.85370    -0.06020   0.90642   1.00
C1       0.14397    0.06663    0.84327   1.00
C1       0.92267    0.85603    0.84327   1.00
C1       0.93337    0.07733    0.84327   1.00
O1       0.00000    0.00000    0.37500   1.00
Zn1      0.00000    0.00000    0.40411   1.00
Zn1      0.05152    -0.04288   0.36608   1.00
Zn1      0.90561    0.94848    0.36608   1.00
Zn1      1.04288    0.09439    0.36608   1.00
O2       0.06140    -0.02610   0.41413   1.00
O2       0.91250    0.93860    0.41413   1.00
O2       0.02610    0.08750    0.41413   1.00
O2       0.08695    -0.07161   0.38819   1.00
O2       0.99538    0.87978    0.34890   1.00
O2       0.12587    0.01926    0.34929   1.00
O2       0.84144    0.91305    0.38819   1.00
O2       0.89340    0.87413    0.34929   1.00
O2       0.88441    0.00462    0.34890   1.00
O2       0.07161    0.15856    0.38819   1.00
O2       0.12022    0.11559    0.34890   1.00
O2       0.98074    0.10660    0.34929   1.00
C1       0.08610    -0.06020   0.40642   1.00
C1       0.85370    0.91390    0.40642   1.00
C1       0.06020    0.14630    0.40642   1.00
C1       0.93337    0.85603    0.34327   1.00
C1       0.14397    0.07733    0.34327   1.00
C1       0.92267    0.06663    0.34327   1.00
O1       0.00000    0.00000    0.12500   1.00
Zn1      0.00000    0.00000    0.09589   1.00
Zn1      -0.04288   0.05152    0.13392   1.00
Zn1      0.94848    0.90561    0.13392   1.00
Zn1      0.09439    1.04288    0.13392   1.00
O2       -0.02610   0.06140    0.08587   1.00
O2       0.93860    0.91250    0.08587   1.00
O2       0.08750    0.02610    0.08587   1.00
O2       -0.07161   0.08695    0.11181   1.00
O2       0.87978    0.99538    0.15110   1.00
O2       0.01926    0.12587    0.15071   1.00
O2       0.91305    0.84144    0.11181   1.00
O2       0.87413    0.89340    0.15071   1.00
O2       0.00462    0.88441    0.15110   1.00
O2       0.15856    0.07161    0.11181   1.00
O2       0.11559    0.12022    0.15110   1.00
O2       0.10660    0.98074    0.15071   1.00
C1       -0.06020   0.08610    0.09358   1.00
C1       0.91390    0.85370    0.09358   1.00
C1       0.14630    0.06020    0.09358   1.00
C1       0.85603    0.93337    0.15673   1.00
C1       0.07733    0.14397    0.15673   1.00
C1       0.06663    0.92267    0.15673   1.00
O1       0.66667    0.33333    0.95833   1.00
Zn1      0.66667    0.33333    0.92922   1.00
Zn1      0.61515    0.37621    0.96725   1.00
Zn1      0.76106    0.38485    0.96725   1.00
Zn1      -0.37621   0.23894    0.96725   1.00
O2       0.60527    0.35943    0.91920   1.00
O2       0.75417    0.39473    0.91920   1.00
O2       0.64057    0.24583    0.91920   1.00
O2       0.57972    0.40494    0.94514   1.00
O2       0.67129    0.45355    0.98443   1.00
O2       0.54080    0.31407    0.98404   1.00
O2       0.82523    0.42028    0.94514   1.00
O2       0.77327    0.45920    0.98404   1.00
O2       -0.21774   0.32871    0.98443   1.00
O2       0.59506    0.17477    0.94514   1.00
O2       0.54645    0.21774    0.98443   1.00
O2       -0.31407   0.22673    0.98404   1.00
C1       0.58057    0.39353    0.92691   1.00
C1       0.81297    0.41943    0.92691   1.00
C1       0.60647    0.18703    0.92691   1.00
C1       0.73330    0.47730    0.99006   1.00
C1       0.52270    0.25600    0.99006   1.00
C1       -0.25600   0.26670    0.99006   1.00
O1       0.66667    0.33333    0.20833   1.00
Zn1      0.66667    0.33333    0.23744   1.00
Zn1      0.70954    0.28182    0.19942   1.00
Zn1      0.71818    0.42773    0.19942   1.00
Zn1      0.57227    0.29046    0.19942   1.00
O2       0.69277    0.27193    0.24746   1.00
O2       0.72807    0.42083    0.24746   1.00
O2       0.57917    0.30723    0.24746   1.00
O2       0.73828    0.24638    0.22152   1.00
O2       0.78688    0.33796    0.18224   1.00
O2       0.64740    0.20747    0.18263   1.00
O2       0.75362    0.49189    0.22152   1.00
O2       0.79253    0.43994    0.18263   1.00
O2       0.66204    0.44893    0.18224   1.00
O2       0.50811    0.26172    0.22152   1.00
O2       0.55107    0.21312    0.18224   1.00
O2       0.56006    0.35260    0.18263   1.00
C1       0.72687    0.24723    0.23975   1.00
C1       0.75277    0.47963    0.23975   1.00
C1       0.52037    0.27313    0.23975   1.00
C1       0.81063    0.39997    0.17661   1.00
C1       0.58933    0.18937    0.17661   1.00
C1       0.60003    0.41067    0.17661   1.00
O1       0.66667    0.33333    0.70833   1.00
Zn1      0.66667    0.33333    0.73744   1.00
Zn1      0.71818    0.29046    0.69942   1.00
Zn1      0.57227    0.28182    0.69942   1.00
Zn1      0.70954    0.42773    0.69942   1.00
O2       0.72807    0.30723    0.74746   1.00
O2       0.57917    0.27193    0.74746   1.00
O2       0.69277    0.42083    0.74746   1.00
O2       0.75362    0.26172    0.72152   1.00
O2       0.66204    0.21312    0.68224   1.00
O2       0.79253    0.35260    0.68263   1.00
O2       0.50811    0.24638    0.72152   1.00
O2       0.56006    0.20747    0.68263   1.00
O2       0.55107    0.33796    0.68224   1.00
O2       0.73828    0.49189    0.72152   1.00
O2       0.78688    0.44893    0.68224   1.00
O2       0.64740    0.43994    0.68263   1.00
C1       0.75277    0.27313    0.73975   1.00
C1       0.52037    0.24723    0.73975   1.00
C1       0.72687    0.47963    0.73975   1.00
C1       0.60003    0.18937    0.67661   1.00
C1       0.81063    0.41067    0.67661   1.00
C1       0.58933    0.39997    0.67661   1.00
O1       0.66667    0.33333    0.45833   1.00
Zn1      0.66667    0.33333    0.42922   1.00
Zn1      -0.37621   0.38485    0.46725   1.00
Zn1      0.61515    0.23894    0.46725   1.00
Zn1      0.76106    0.37621    0.46725   1.00
O2       0.64057    0.39473    0.41920   1.00
O2       0.60527    0.24583    0.41920   1.00
O2       0.75417    0.35943    0.41920   1.00
O2       0.59506    0.42028    0.44514   1.00
O2       0.54645    0.32871    0.48443   1.00
O2       -0.31407   0.45920    0.48404   1.00
O2       0.57972    0.17477    0.44514   1.00
O2       0.54080    0.22673    0.48404   1.00
O2       0.67129    0.21774    0.48443   1.00
O2       0.82523    0.40494    0.44514   1.00
O2       -0.21774   0.45355    0.48443   1.00
O2       0.77327    0.31407    0.48404   1.00
C1       0.60647    0.41943    0.42691   1.00
C1       0.58057    0.18703    0.42691   1.00
C1       0.81297    0.39353    0.42691   1.00
C1       0.52270    0.26670    0.49006   1.00
C1       -0.25600   0.47730    0.49006   1.00
C1       0.73330    0.25600    0.49006   1.00
O1       0.33333    0.66667    0.29167   1.00
Zn1      0.33333    0.66667    0.26256   1.00
Zn1      0.28182    0.70954    0.30058   1.00
Zn1      0.42773    0.71818    0.30058   1.00
Zn1      0.29046    0.57227    0.30058   1.00
O2       0.27193    0.69277    0.25254   1.00
O2       0.42083    0.72807    0.25254   1.00
O2       0.30723    0.57917    0.25254   1.00
O2       0.24638    0.73828    0.27848   1.00
O2       0.33796    0.78688    0.31776   1.00
O2       0.20747    0.64740    0.31737   1.00
O2       0.49189    0.75362    0.27848   1.00
O2       0.43994    0.79253    0.31737   1.00
O2       0.44893    0.66204    0.31776   1.00
O2       0.26172    0.50811    0.27848   1.00
O2       0.21312    0.55107    0.31776   1.00
O2       0.35260    0.56006    0.31737   1.00
C1       0.24723    0.72687    0.26025   1.00
C1       0.47963    0.75277    0.26025   1.00
C1       0.27313    0.52037    0.26025   1.00
C1       0.39997    0.81063    0.32339   1.00
C1       0.18937    0.58933    0.32339   1.00
C1       0.41067    0.60003    0.32339   1.00
O1       0.33333    0.66667    0.54167   1.00
Zn1      0.33333    0.66667    0.57078   1.00
Zn1      0.37621    0.61515    0.53275   1.00
Zn1      0.38485    0.76106    0.53275   1.00
Zn1      0.23894    -0.37621   0.53275   1.00
O2       0.35943    0.60527    0.58080   1.00
O2       0.39473    0.75417    0.58080   1.00
O2       0.24583    0.64057    0.58080   1.00
O2       0.40494    0.57972    0.55486   1.00
O2       0.45355    0.67129    0.51557   1.00
O2       0.31407    0.54080    0.51596   1.00
O2       0.42028    0.82523    0.55486   1.00
O2       0.45920    0.77327    0.51596   1.00
O2       0.32871    -0.21774   0.51557   1.00
O2       0.17477    0.59506    0.55486   1.00
O2       0.21774    0.54645    0.51557   1.00
O2       0.22673    -0.31407   0.51596   1.00
C1       0.39353    0.58057    0.57309   1.00
C1       0.41943    0.81297    0.57309   1.00
C1       0.18703    0.60647    0.57309   1.00
C1       0.47730    0.73330    0.50994   1.00
C1       0.25600    0.52270    0.50994   1.00
C1       0.26670    -0.25600   0.50994   1.00
O1       0.33333    0.66667    0.04167   1.00
Zn1      0.33333    0.66667    0.07078   1.00
Zn1      0.38485    -0.37621   0.03275   1.00
Zn1      0.23894    0.61515    0.03275   1.00
Zn1      0.37621    0.76106    0.03275   1.00
O2       0.39473    0.64057    0.08080   1.00
O2       0.24583    0.60527    0.08080   1.00
O2       0.35943    0.75417    0.08080   1.00
O2       0.42028    0.59506    0.05486   1.00
O2       0.32871    0.54645    0.01557   1.00
O2       0.45920    -0.31407   0.01596   1.00
O2       0.17477    0.57972    0.05486   1.00
O2       0.22673    0.54080    0.01596   1.00
O2       0.21774    0.67129    0.01557   1.00
O2       0.40494    0.82523    0.05486   1.00
O2       0.45355    -0.21774   0.01557   1.00
O2       0.31407    0.77327    0.01596   1.00
C1       0.41943    0.60647    0.07309   1.00
C1       0.18703    0.58057    0.07309   1.00
C1       0.39353    0.81297    0.07309   1.00
C1       0.26670    0.52270    0.00994   1.00
C1       0.47730    -0.25600   0.00994   1.00
C1       0.25600    0.73330    0.00994   1.00
O1       0.33333    0.66667    0.79167   1.00
Zn1      0.33333    0.66667    0.76256   1.00
Zn1      0.29046    0.71818    0.80058   1.00
Zn1      0.28182    0.57227    0.80058   1.00
Zn1      0.42773    0.70954    0.80058   1.00
O2       0.30723    0.72807    0.75254   1.00
O2       0.27193    0.57917    0.75254   1.00
O2       0.42083    0.69277    0.75254   1.00
O2       0.26172    0.75362    0.77848   1.00
O2       0.21312    0.66204    0.81776   1.00
O2       0.35260    0.79253    0.81737   1.00
O2       0.24638    0.50811    0.77848   1.00
O2       0.20747    0.56006    0.81737   1.00
O2       0.33796    0.55107    0.81776   1.00
O2       0.49189    0.73828    0.77848   1.00
O2       0.44893    0.78688    0.81776   1.00
O2       0.43994    0.64740    0.81737   1.00
C1       0.27313    0.75277    0.76025   1.00
C1       0.24723    0.52037    0.76025   1.00
C1       0.47963    0.72687    0.76025   1.00
C1       0.18937    0.60003    0.82339   1.00
C1       0.41067    0.81063    0.82339   1.00
C1       0.39997    0.58933    0.82339   1.00
C4       -0.13354   0.69421    0.54871   1.00
C4       -0.16108   0.64131    0.53379   1.00
C3       -0.08368   0.70201    0.56318   1.00
C3       -0.14619   0.58742    0.53302   1.00
C3       -0.15758   0.74164    0.54956   1.00
C3       -0.20595   0.64183    0.51867   1.00
C2       -0.08289   0.80048    0.57905   1.00
C2       -0.22005   0.53537    0.50340   1.00
C3       -0.05931   0.75342    0.57801   1.00
C3       -0.17434   0.53625    0.51813   1.00
C3       -0.13141   0.79392    0.56439   1.00
C3       -0.23605   0.58819    0.50434   1.00
H1       -0.06344   0.67071    0.56332   1.00
H1       -0.11480   0.58351    0.54332   1.00
C5       -0.20739   0.73671    0.53553   1.00
C5       -0.22108   0.69543    0.51803   1.00
H1       -0.02362   0.75627    0.58816   1.00
H1       -0.16128   0.49887    0.51821   1.00
H1       -0.14774   0.82872    0.56446   1.00
H1       -0.27141   0.58693    0.49444   1.00
O3       -0.23861   0.77494    0.53847   1.00
O3       -0.25296   0.70437    0.50139   1.00
Si1      -0.31084   0.74227    0.55074   1.00
Si1      -0.20666   0.74758    0.48202   1.00
C6       -0.31559   0.81759    0.55238   1.00
C6       -0.37462   0.68200    0.53461   1.00
C6       -0.30729   0.71144    0.57505   1.00
C6       -0.11791   0.77845    0.48291   1.00
C6       -0.24272   0.68982    0.46182   1.00
C6       -0.22234   0.81536    0.47783   1.00
C6       -0.24896   0.88300    0.55954   1.00
H2       -0.32219   0.82702    0.53652   1.00
C6       -0.37522   0.81879    0.56418   1.00
H2       -0.35256   0.70064    0.51965   1.00
C6       -0.39076   0.60633    0.53558   1.00
C6       -0.44587   0.67752    0.53423   1.00
H2       -0.26042   0.75371    0.58126   1.00
C6       -0.36535   0.69877    0.59038   1.00
C6       -0.30037   0.64598    0.57701   1.00
C6       -0.07642   0.82597    0.50095   1.00
C6       -0.09062   0.72767    0.47987   1.00
H2       -0.09973   0.81076    0.46945   1.00
H2       -0.22828   0.65139    0.46492   1.00
C6       -0.32248   0.64975    0.46067   1.00
C6       -0.21644   0.71723    0.43997   1.00
H2       -0.27026   0.79203    0.46941   1.00
C6       -0.23601   0.84682    0.49706   1.00
C6       -0.16999   0.87701    0.46466   1.00
H2       -0.20542   0.89316    0.55001   1.00
H2       -0.23637   0.87783    0.57520   1.00
H2       -0.25450   0.92821    0.55865   1.00
H2       -0.38811   0.85424    0.55688   1.00
H2       -0.42141   0.76923    0.56471   1.00
H2       -0.36131   0.83628    0.57981   1.00
H2       -0.41966   0.57797    0.52222   1.00
H2       -0.34463   0.60269    0.53579   1.00
H2       -0.42126   0.58031    0.54892   1.00
H2       -0.44113   0.72673    0.53063   1.00
H2       -0.47890   0.64207    0.52254   1.00
H2       -0.47202   0.65970    0.54877   1.00
H2       -0.41562   0.66544    0.58384   1.00
H2       -0.36166   0.67529    0.60448   1.00
H2       -0.36211   0.74636    0.59498   1.00
H2       -0.34988   0.59919    0.57687   1.00
H2       -0.27009   0.64126    0.56509   1.00
H2       -0.27569   0.64698    0.59137   1.00
H2       -0.07912   0.79683    0.51441   1.00
H2       -0.02251   0.85682    0.49692   1.00
H2       -0.09397   0.86122    0.50502   1.00
H2       -0.03520   0.75551    0.47795   1.00
H2       -0.10171   0.69384    0.49278   1.00
H2       -0.11151   0.69649    0.46629   1.00
H2       -0.34013   0.60742    0.44993   1.00
H2       -0.34519   0.62759    0.47535   1.00
H2       -0.34270   0.68220    0.45577   1.00
H2       -0.16088   0.74437    0.43917   1.00
H2       -0.23495   0.67495    0.42917   1.00
H2       -0.23441   0.75136    0.43481   1.00
H2       -0.19221   0.86978    0.50724   1.00
H2       -0.24919   0.88565    0.49308   1.00
H2       -0.27891   0.80740    0.50543   1.00
H2       -0.19046   0.91013    0.46061   1.00
H2       -0.12217   0.90802    0.47281   1.00
H2       -0.15848   0.86016    0.45047   1.00
C4       0.30792    0.17266    0.54936   1.00
C4       0.36037    0.19744    0.53431   1.00
C3       0.31725    0.20088    0.56913   1.00
C3       0.42892    0.24869    0.53808   1.00
C3       0.24257    0.11582    0.54467   1.00
C3       0.34400    0.17000    0.51427   1.00
C2       0.20030    0.11747    0.57929   1.00
C2       0.46385    0.24374    0.50316   1.00
C3       0.26509    0.17385    0.58373   1.00
C3       0.47912    0.27168    0.52290   1.00
C3       0.19022    0.09011    0.55948   1.00
C3       0.39596    0.19179    0.49943   1.00
H1       0.36215    0.24206    0.57348   1.00
H1       0.44450    0.27053    0.55201   1.00
C5       0.22984    0.08523    0.52518   1.00
C5       0.27610    0.12057    0.50918   1.00
H1       0.27496    0.19607    0.59782   1.00
H1       0.52771    0.30928    0.52646   1.00
H1       0.14303    0.05053    0.55571   1.00
H1       0.38435    0.16855    0.48555   1.00
O3       0.17109    0.02396    0.52180   1.00
O3       0.25649    0.10341    0.48920   1.00
Si1      0.17182    -0.04740   0.52436   1.00
Si1      0.23412    0.15019    0.47609   1.00
C6       0.08313    -0.10288   0.52183   1.00
C6       0.21657    -0.05443   0.50349   1.00
C6       0.20121    -0.05622   0.54835   1.00
C6       0.23894    0.22259    0.48789   1.00
C6       0.28986    0.17614    0.45526   1.00
C6       0.15086    0.09579    0.46707   1.00
C6       0.03653    -0.08424   0.53471   1.00
H2       0.07421    -0.09478   0.50606   1.00
C6       0.05105    -0.18207   0.52420   1.00
H2       0.20990    -0.02326   0.49210   1.00
C6       0.29537    -0.02416   0.50549   1.00
C6       0.18943    -0.12601   0.49341   1.00
H2       0.17234    -0.04228   0.55865   1.00
C6       0.18460    -0.12957   0.55479   1.00
C6       0.27851    -0.00958   0.55403   1.00
C6       0.19801    0.21179    0.50797   1.00
C6       0.31026    0.28791    0.49119   1.00
H2       0.21441    0.23890    0.47673   1.00
H2       0.33936    0.21185    0.46181   1.00
C6       0.29971    0.11943    0.44490   1.00
C6       0.27718    0.21526    0.43781   1.00
H2       0.15829    0.07153    0.45377   1.00
C6       0.10284    0.03567    0.48126   1.00
C6       0.10828    0.12886    0.45963   1.00
H2       0.04764    -0.03227   0.53165   1.00
H2       0.04337    -0.08849   0.55095   1.00
H2       -0.01734   -0.11787   0.53111   1.00
H2       0.00693    -0.20866   0.51418   1.00
H2       0.08649    -0.19961   0.52046   1.00
H2       0.03262    -0.19943   0.53958   1.00
H2       0.31870    -0.01862   0.49057   1.00
H2       0.32043    0.02642    0.51227   1.00
H2       0.30714    -0.05732   0.51455   1.00
H2       0.13647    -0.14778   0.48859   1.00
H2       0.21846    -0.12249   0.47975   1.00
H2       0.19344    -0.16143   0.50379   1.00
H2       0.20180    -0.15240   0.54331   1.00
H2       0.20878    -0.12938   0.56918   1.00
H2       0.13031    -0.16279   0.55729   1.00
H2       0.30947    -0.03148   0.54909   1.00
H2       0.30131    0.04117    0.54760   1.00
H2       0.28420    -0.00335   0.57049   1.00
H2       0.22594    0.20973    0.52115   1.00
H2       0.18851    0.25408    0.51044   1.00
H2       0.14853    0.16530    0.50766   1.00
H2       0.30425    0.33091    0.49593   1.00
H2       0.33991    0.28076    0.50291   1.00
H2       0.34052    0.30396    0.47732   1.00
H2       0.34332    0.14229    0.43455   1.00
H2       0.31021    0.09023    0.45608   1.00
H2       0.25496    0.08387    0.43617   1.00
H2       0.27169    0.25739    0.44362   1.00
H2       0.32036    0.23726    0.42730   1.00
H2       0.23161    0.18134    0.42909   1.00
H2       0.09342    0.05350    0.49561   1.00
H2       0.05372    0.00220    0.47407   1.00
H2       0.12580    0.00468    0.48466   1.00
H2       0.06238    0.09146    0.45161   1.00
H2       0.09211    0.14846    0.47232   1.00
H2       0.13709    0.17064    0.44907   1.00
C4       0.83199    0.14148    0.54986   1.00
C4       0.80716    0.16808    0.53449   1.00
C3       0.87380    0.18094    0.56624   1.00
C3       0.82667    0.23806    0.53293   1.00
C3       0.81525    0.07184    0.54877   1.00
C3       0.76002    0.12268    0.51979   1.00
C2       0.88293    0.08479    0.57977   1.00
C2       0.75586    0.21815    0.50268   1.00
C3       0.89891    0.15354    0.58073   1.00
C3       0.80126    0.26234    0.51758   1.00
C3       0.84003    0.04482    0.56374   1.00
C3       0.73730    0.14864    0.50394   1.00
H1       0.88705    0.23069    0.56818   1.00
H1       0.86024    0.27353    0.54281   1.00
C5       0.77362    0.02957    0.53278   1.00
C5       0.73625    0.05178    0.52086   1.00
H1       0.92935    0.18466    0.59216   1.00
H1       0.81671    0.31337    0.51730   1.00
H1       0.82605    -0.00571   0.56308   1.00
H1       0.70701    0.11621    0.49280   1.00
O3       0.76698    -0.03372   0.52984   1.00
O3       0.68113    0.00566    0.50944   1.00
Si1      0.81740    -0.04248   0.51395   1.00
Si1      0.60434    -0.02187   0.51822   1.00
C6       0.79198    -0.12788   0.51999   1.00
C6       0.79156    -0.03573   0.48925   1.00
C6       0.90477    0.01234    0.51917   1.00
C6       0.59533    0.01106    0.54160   1.00
C6       0.56516    -0.00021   0.49892   1.00
C6       0.56395    -0.11147   0.51937   1.00
C6       0.78815    -0.14489   0.54317   1.00
H2       0.73927    -0.15506   0.51466   1.00
C6       0.82737    -0.16493   0.50985   1.00
H2       0.73808    -0.05099   0.49158   1.00
C6       0.82497    0.03639    0.47915   1.00
C6       0.79162    -0.08430   0.47237   1.00
H2       0.90723    0.00538    0.53549   1.00
C6       0.95667    -0.00560   0.50920   1.00
C6       0.93733    0.09117    0.51556   1.00
C6       0.63205    0.00314    0.56062   1.00
C6       0.60669    0.08517    0.54250   1.00
H2       0.54094    -0.02106   0.54469   1.00
H2       0.59035    0.05527    0.49975   1.00
C6       0.57719    -0.01647   0.47672   1.00
C6       0.48698    -0.02715   0.50097   1.00
H2       0.54704    -0.12785   0.50383   1.00
C6       0.61036    -0.14201   0.52464   1.00
C6       0.49888    -0.15019   0.53298   1.00
H2       0.75503    -0.13068   0.55128   1.00
H2       0.83859    -0.11806   0.55020   1.00
H2       0.76710    -0.19954   0.54563   1.00
H2       0.79045    -0.21913   0.50788   1.00
H2       0.84867    -0.14440   0.49502   1.00
H2       0.86857    -0.16215   0.51917   1.00
H2       0.79503    0.03608    0.46608   1.00
H2       0.82745    0.07502    0.48948   1.00
H2       0.87635    0.05227    0.47375   1.00
H2       0.76066    -0.13774   0.47675   1.00
H2       0.76966    -0.07864   0.45822   1.00
H2       0.84340    -0.07333   0.46905   1.00
H2       0.94957    -0.01131   0.49279   1.00
H2       1.00963    0.03359    0.51211   1.00
H2       0.95163    -0.05224   0.51550   1.00
H2       0.95540    0.10567    0.50001   1.00
H2       0.90273    0.11008    0.51861   1.00
H2       0.98138    0.11924    0.52553   1.00
H2       0.68528    0.04332    0.56137   1.00
H2       0.60760    0.00638    0.57455   1.00
H2       0.63021    -0.04581   0.56089   1.00
H2       0.58999    0.09446    0.55713   1.00
H2       0.66007    0.12386    0.54075   1.00
H2       0.57730    0.09380    0.53097   1.00
H2       0.56106    0.00899    0.46578   1.00
H2       0.63119    0.00197    0.47384   1.00
H2       0.54882    -0.07103   0.47350   1.00
H2       0.47400    -0.01616   0.51590   1.00
H2       0.47066    -0.00241   0.48982   1.00
H2       0.45714    -0.08207   0.49834   1.00
H2       0.63281    -0.12699   0.53972   1.00
H2       0.58232    -0.19765   0.52388   1.00
H2       0.65174    -0.12433   0.51376   1.00
H2       0.47286    -0.20504   0.53002   1.00
H2       0.51183    -0.14257   0.54910   1.00
H2       0.46206    -0.13362   0.52998   1.00
C4       0.69102    -0.14243   0.95029   1.00
C4       0.63967    -0.16869   0.96569   1.00
C3       0.70422    -0.18428   0.93720   1.00
C3       0.60072    -0.23894   0.97075   1.00
C3       0.73251    -0.07035   0.94792   1.00
C3       0.62588    -0.12268   0.97673   1.00
C2       0.79805    -0.08536   0.92020   1.00
C2       0.53780    -0.21758   0.99735   1.00
C3       0.75649    -0.15658   0.92264   1.00
C3       0.55073    -0.26283   0.98601   1.00
C3       0.78415    -0.04343   0.93289   1.00
C3       0.57736    -0.14744   0.99263   1.00
H1       0.67609    -0.23611   0.93780   1.00
H1       0.60780    -0.27478   0.96359   1.00
C5       0.72196    -0.02564   0.96052   1.00
C5       0.66092    -0.05219   0.97199   1.00
H1       0.76399    -0.18936   0.91369   1.00
H1       0.52373    -0.31425   0.98889   1.00
H1       0.81224    0.00834    0.93099   1.00
H1       0.57118    -0.11336   1.00124   1.00
O3       0.76892    0.04310    0.96053   1.00
O3       0.63926    -0.00926   0.97954   1.00
Si1      0.83049    0.07417    0.97721   1.00
Si1      0.57946    -0.00338   0.96750   1.00
C6       0.87660    0.15714    0.96695   1.00
C6       0.79437    0.07455    1.00086   1.00
C6       0.87954    0.03330    0.97704   1.00
C6       0.54309    -0.05471   0.94576   1.00
C6       0.51631    -0.02557   0.98610   1.00
C6       0.61237    0.08323    0.96138   1.00
C6       0.88888    0.16142    0.94346   1.00
H2       0.84176    0.17665    0.96943   1.00
C6       0.94648    0.21192    0.97636   1.00
H2       0.74905    0.07654    0.99633   1.00
C6       0.76813    0.01029    1.01478   1.00
C6       0.83490    0.13693    1.01532   1.00
H2       0.88951    0.03214    0.96087   1.00
C6       0.95110    0.07132    0.98759   1.00
C6       0.84710    -0.04216   0.98487   1.00
C6       0.59169    -0.04788   0.92794   1.00
C6       0.49183    -0.13287   0.94834   1.00
H2       0.51134    -0.03506   0.93975   1.00
H2       0.49625    -0.08005   0.98838   1.00
C6       0.54173    0.00773    1.00748   1.00
C6       0.45392    -0.01685   0.98060   1.00
H2       0.60668    0.10570    0.97537   1.00
C6       0.68997    0.12487    0.95634   1.00
C6       0.57542    0.10139    0.94449   1.00
H2       0.84098    0.13317    0.93513   1.00
H2       0.92167    0.14078    0.93923   1.00
H2       0.91304    0.21415    0.93812   1.00
H2       0.95248    0.26274    0.97490   1.00
H2       0.95098    0.20336    0.99237   1.00
H2       0.99001    0.21377    0.96861   1.00
H2       0.73452    0.01066    1.02663   1.00
H2       0.73843    -0.03694   1.00637   1.00
H2       0.81038    0.00884    1.02227   1.00
H2       0.84729    0.18478    1.00786   1.00
H2       0.80481    0.13342    1.02872   1.00
H2       0.88197    0.13973    1.02059   1.00
H2       0.94691    0.08512    1.00318   1.00
H2       0.97567    0.04022    0.98799   1.00
H2       0.98621    0.11711    0.97933   1.00
H2       0.85320    -0.04455   1.00122   1.00
H2       0.79313    -0.07299   0.98165   1.00
H2       0.87204    -0.06743   0.97764   1.00
H2       0.61554    -0.07875   0.93050   1.00
H2       0.56320    -0.06540   0.91372   1.00
H2       0.63183    0.00465    0.92556   1.00
H2       0.46670    -0.15543   0.93393   1.00
H2       0.51694    -0.16066   0.95328   1.00
H2       0.45126    -0.14293   0.95909   1.00
H2       0.50124    -0.01766   1.01875   1.00
H2       0.58484    0.00272    1.01268   1.00
H2       0.55731    0.06178    1.00747   1.00
H2       0.43142    -0.04052   0.96608   1.00
H2       0.41385    -0.04139   0.99205   1.00
H2       0.46826    0.03689    0.97996   1.00
H2       0.70286    0.10552    0.94291   1.00
H2       0.70704    0.17877    0.95390   1.00
H2       0.71926    0.12213    0.96897   1.00
H2       0.59386    0.15620    0.94430   1.00
H2       0.58436    0.08713    0.92945   1.00
H2       0.52054    0.07601    0.94701   1.00
C4       0.17266    0.30791    0.95064   1.00
C4       0.19745    0.36037    0.96570   1.00
C3       0.20100    0.31719    0.93089   1.00
C3       0.24883    0.42887    0.96193   1.00
C3       0.11571    0.24262    0.95532   1.00
C3       0.16987    0.34404    0.98571   1.00
C2       0.11747    0.20030    0.92071   1.00
C2       0.24374    0.46385    0.99684   1.00
C3       0.17396    0.26503    0.91629   1.00
C3       0.27181    0.47907    0.97711   1.00
C3       0.08999    0.19026    0.94050   1.00
C3       0.19166    0.39601    1.00055   1.00
H1       0.24226    0.36204    0.92656   1.00
H1       0.27076    0.44442    0.94802   1.00
C5       0.08500    0.22995    0.97478   1.00
C5       0.12030    0.27618    0.99079   1.00
H1       0.19627    0.27486    0.90222   1.00
H1       0.30951    0.52763    0.97357   1.00
H1       0.05032    0.14312    0.94426   1.00
H1       0.16834    0.38444    1.01442   1.00
O3       0.02364    0.17128    0.97814   1.00
O3       0.10299    0.25658    1.01077   1.00
Si1      -0.04762   0.17218    0.97553   1.00
Si1      0.14958    0.23407    1.02392   1.00
C6       -0.10326   0.08352    0.97805   1.00
C6       -0.05466   0.21701    0.99638   1.00
C6       -0.05620   0.20163    0.95152   1.00
C6       0.22197    0.23872    1.01218   1.00
C6       0.17550    0.28982    1.04475   1.00
C6       0.09498    0.15084    1.03293   1.00
C6       -0.08468   0.03682    0.96520   1.00
H2       -0.09530   0.07457    0.99383   1.00
C6       -0.18242   0.05160    0.97563   1.00
H2       -0.02362   0.21024    1.00779   1.00
C6       -0.02423   0.29582    0.99437   1.00
C6       -0.12628   0.19000    1.00641   1.00
H2       -0.04228   0.17269    0.94124   1.00
C6       -0.12946   0.18518    0.94504   1.00
C6       -0.00939   0.27891    0.94585   1.00
C6       0.21121    0.19777    0.99210   1.00
C6       0.28741    0.30997    1.00890   1.00
H2       0.23813    0.21412    1.02336   1.00
H2       0.21133    0.33929    1.03821   1.00
C6       0.11881    0.29982    1.05507   1.00
C6       0.21443    0.27702    1.06223   1.00
H2       0.07068    0.15834    1.04621   1.00
C6       0.03491    0.10291    1.01871   1.00
C6       0.12785    0.10813    1.04041   1.00
H2       -0.03276   0.04781    0.96830   1.00
H2       -0.08881   0.04368    0.94896   1.00
H2       -0.11842   -0.01704   0.96880   1.00
H2       -0.20915   0.00749    0.98565   1.00
H2       -0.19987   0.08712    0.97934   1.00
H2       -0.19971   0.03319    0.96024   1.00
H2       -0.01873   0.31917    1.00929   1.00
H2       0.02640    0.32079    0.98762   1.00
H2       -0.05726   0.30769    0.98528   1.00
H2       -0.14819   0.13704    1.01123   1.00
H2       -0.12279   0.21906    1.02006   1.00
H2       -0.16159   0.19411    0.99600   1.00
H2       -0.15229   0.20246    0.95649   1.00
H2       -0.12912   0.20939    0.93063   1.00
H2       -0.16276   0.13090    0.94252   1.00
H2       -0.03123   0.30997    0.95076   1.00
H2       0.04130    0.30161    0.95230   1.00
H2       -0.00306   0.28459    0.92939   1.00
H2       0.20931    0.22574    0.97891   1.00
H2       0.25345    0.18816    0.98967   1.00
H2       0.16466    0.14834    0.99240   1.00
H2       0.33037    0.30385    1.00419   1.00
H2       0.28041    0.33967    0.99716   1.00
H2       0.30343    0.34022    1.02277   1.00
H2       0.14169    0.34342    1.06542   1.00
H2       0.08974    0.31040    1.04386   1.00
H2       0.08313    0.25510    1.06379   1.00
H2       0.25653    0.27142    1.05646   1.00
H2       0.23643    0.32020    1.07275   1.00
H2       0.18038    0.23148    1.07095   1.00
H2       0.05278    0.09344    1.00439   1.00
H2       0.00131    0.05381    1.02590   1.00
H2       0.00403    0.12597    1.01528   1.00
H2       0.09034    0.06226    1.04842   1.00
H2       0.14747    0.09189    1.02774   1.00
H2       0.16958    0.13687    1.05099   1.00
C4       0.14147    0.83199    0.95014   1.00
C4       0.16808    0.80716    0.96551   1.00
C3       0.18093    0.87379    0.93375   1.00
C3       0.23806    0.82666    0.96707   1.00
C3       0.07184    0.81526    0.95123   1.00
C3       0.12269    0.76003    0.98021   1.00
C2       0.08479    0.88293    0.92023   1.00
C2       0.21815    0.75586    0.99732   1.00
C3       0.15353    0.89890    0.91927   1.00
C3       0.26234    0.80125    0.98242   1.00
C3       0.04482    0.84005    0.93626   1.00
C3       0.14865    0.73731    0.99606   1.00
H1       0.23068    0.88703    0.93182   1.00
H1       0.27352    0.86022    0.95718   1.00
C5       0.02958    0.77365    0.96723   1.00
C5       0.05178    0.73627    0.97915   1.00
H1       0.18465    0.92932    0.90784   1.00
H1       0.31337    0.81668    0.98269   1.00
H1       -0.00570   0.82608    0.93692   1.00
H1       0.11621    0.70704    1.00720   1.00
O3       -0.03370   0.76702    0.97017   1.00
O3       0.00567    0.68117    0.99057   1.00
Si1      -0.04244   0.81747    0.98605   1.00
Si1      -0.02189   0.60437    0.98179   1.00
C6       -0.12784   0.79206    0.98002   1.00
C6       -0.03568   0.79163    1.01076   1.00
C6       0.01239    0.90483    0.98083   1.00
C6       0.01102    0.59534    0.95841   1.00
C6       -0.00023   0.56520    1.00110   1.00
C6       -0.11149   0.56400    0.98064   1.00
C6       -0.14486   0.78821    0.95684   1.00
H2       -0.15503   0.73935    0.98536   1.00
C6       -0.16488   0.82747    0.99016   1.00
H2       -0.05095   0.73815    1.00843   1.00
C6       0.03644    0.82503    1.02086   1.00
C6       -0.08424   0.79172    1.02764   1.00
H2       0.00543    0.90728    0.96451   1.00
C6       -0.00553   0.95675    0.99080   1.00
C6       0.09122    0.93737    0.98444   1.00
C6       0.00310    0.63205    0.93939   1.00
C6       0.08513    0.60668    0.95751   1.00
H2       -0.02111   0.54095    0.95533   1.00
H2       0.05525    0.59037    1.00026   1.00
C6       -0.01647   0.57724    1.02330   1.00
C6       -0.02719   0.48700    0.99905   1.00
H2       -0.12786   0.54710    0.99619   1.00
C6       -0.14201   0.61042    0.97537   1.00
C6       -0.15023   0.49892    0.96704   1.00
H2       -0.13067   0.75508    0.94873   1.00
H2       -0.11803   0.83866    0.94981   1.00
H2       -0.19952   0.76718    0.95439   1.00
H2       -0.21907   0.79056    0.99214   1.00
H2       -0.14432   0.84877    1.00499   1.00
H2       -0.16209   0.86866    0.98084   1.00
H2       0.03614    0.79510    1.03392   1.00
H2       0.07506    0.82751    1.01052   1.00
H2       0.05234    0.87643    1.02625   1.00
H2       -0.13768   0.76077    1.02327   1.00
H2       -0.07857   0.76976    1.04179   1.00
H2       -0.07325   0.84350    1.03096   1.00
H2       -0.01123   0.94966    1.00721   1.00
H2       0.03366    1.00970    0.98788   1.00
H2       -0.05217   0.95171    0.98451   1.00
H2       0.10573    0.95545    0.99999   1.00
H2       0.11012    0.90277    0.98139   1.00
H2       0.11929    0.98141    0.97447   1.00
H2       0.04328    0.68527    0.93864   1.00
H2       0.00632    0.60758    0.92547   1.00
H2       -0.04584   0.63023    0.93913   1.00
H2       0.09440    0.58997    0.94288   1.00
H2       0.12382    0.66006    0.95926   1.00
H2       0.09376    0.57729    0.96904   1.00
H2       0.00899    0.56111    1.03424   1.00
H2       0.00198    0.63124    1.02617   1.00
H2       -0.07103   0.54888    1.02652   1.00
H2       -0.01621   0.47401    0.98412   1.00
H2       -0.00245   0.47068    1.01020   1.00
H2       -0.08210   0.45718    1.00168   1.00
H2       -0.12700   0.63285    0.96030   1.00
H2       -0.19766   0.58238    0.97614   1.00
H2       -0.12432   0.65180    0.98626   1.00
H2       -0.20508   0.47291    0.97001   1.00
H2       -0.14262   0.51186    0.95092   1.00
H2       -0.13367   0.46209    0.97004   1.00
C4       0.13932    0.30292    0.45214   1.00
C4       0.16647    0.35601    0.46701   1.00
C3       0.16470    0.25769    0.44883   1.00
C3       0.22550    0.37313    0.47874   1.00
C3       0.08438    0.29478    0.43959   1.00
C3       0.13311    0.39441    0.47053   1.00
C2       0.08386    0.19903    0.42109   1.00
C2       0.21908    0.46512    0.49646   1.00
C3       0.13804    0.20742    0.43366   1.00
C3       0.25074    0.42575    0.49319   1.00
C3       0.05734    0.24292    0.42463   1.00
C3       0.16105    0.44912    0.48454   1.00
H1       0.20316    0.25979    0.45739   1.00
H1       0.25215    0.34817    0.47704   1.00
C5       0.05661    0.33829    0.44212   1.00
C5       0.07245    0.37850    0.45995   1.00
H1       0.15878    0.17650    0.43187   1.00
H1       0.29328    0.43546    0.50135   1.00
H1       0.01669    0.23647    0.41612   1.00
H1       0.13909    0.47889    0.48595   1.00
O3       0.01178    0.33789    0.42791   1.00
O3       0.03222    0.40543    0.46589   1.00
Si1      0.04031    0.39230    0.40916   1.00
Si1      -0.02404   0.36718    0.48379   1.00
C6       -0.03676   0.35768    0.39540   1.00
C6       0.06288    0.47307    0.41918   1.00
C6       0.10482    0.38927    0.39495   1.00
C6       -0.02874   0.29450    0.49536   1.00
C6       -0.00123   0.43153    0.50203   1.00
C6       -0.10410   0.34702    0.47378   1.00
C6       -0.07548   0.27838    0.39237   1.00
H2       -0.06907   0.36760    0.40549   1.00
C6       -0.04014   0.38782    0.37426   1.00
H2       0.03062    0.45950    0.43264   1.00
C6       0.13757    0.51961    0.42690   1.00
C6       0.04612    0.52133    0.40652   1.00
H2       0.08300    0.33455    0.39244   1.00
C6       0.12084    0.42286    0.37338   1.00
C6       0.17704    0.41538    0.40471   1.00
C6       -0.04219   0.23303    0.48147   1.00
C6       0.02776    0.30360    0.51082   1.00
H2       -0.07431   0.27581    0.50476   1.00
H2       0.04673    0.43892    0.50818   1.00
C6       0.01528    0.50306    0.49380   1.00
C6       -0.05028   0.41544    0.52050   1.00
H2       -0.10502   0.39464    0.47497   1.00
C6       -0.11560   0.32808    0.45083   1.00
C6       -0.16957   0.29190    0.48501   1.00
H2       -0.08560   0.25160    0.40686   1.00
H2       -0.04606   0.26266    0.38294   1.00
H2       -0.12495   0.26054    0.38511   1.00
H2       -0.09004   0.38360    0.37226   1.00
H2       -0.00179   0.44129    0.37257   1.00
H2       -0.03379   0.36025    0.36164   1.00
H2       0.14101    0.56064    0.43648   1.00
H2       0.15513    0.49157    0.43613   1.00
H2       0.17287    0.54325    0.41426   1.00
H2       -0.00803   0.49669    0.40280   1.00
H2       0.05783    0.56738    0.41505   1.00
H2       0.07577    0.53741    0.39250   1.00
H2       0.13201    0.47564    0.37413   1.00
H2       0.16452    0.42277    0.36630   1.00
H2       0.07860    0.39466    0.36300   1.00
H2       0.21066    0.47006    0.40250   1.00
H2       0.17527    0.40590    0.42086   1.00
H2       0.20193    0.38972    0.39769   1.00
H2       0.00463    0.24022    0.47455   1.00
H2       -0.06350   0.18596    0.49033   1.00
H2       -0.07845   0.22455    0.46942   1.00
H2       0.01277    0.25565    0.51872   1.00
H2       0.07626    0.31882    0.50344   1.00
H2       0.03618    0.34098    0.52254   1.00
H2       0.03986    0.54194    0.50556   1.00
H2       0.05061    0.51894    0.48099   1.00
H2       -0.03055   0.50347    0.48891   1.00
H2       -0.06305   0.36701    0.52764   1.00
H2       -0.02606   0.45489    0.53214   1.00
H2       -0.09751   0.41375    0.51600   1.00
H2       -0.11322   0.28215    0.44749   1.00
H2       -0.16475   0.32025    0.44557   1.00
H2       -0.07656   0.36943    0.44188   1.00
H2       -0.21506   0.29159    0.47928   1.00
H2       -0.17698   0.24078    0.48285   1.00
H2       -0.16726   0.30187    0.50125   1.00
C4       0.69408    0.82768    0.45125   1.00
C4       0.64249    0.80304    0.46657   1.00
C3       0.74586    0.80984    0.45020   1.00
C3       0.64118    0.76322    0.48339   1.00
C3       0.69508    0.87358    0.43623   1.00
C3       0.58882    0.81859    0.46515   1.00
C2       0.79862    0.88234    0.42038   1.00
C2       0.53723    0.75645    0.49717   1.00
C3       0.79692    0.83669    0.43527   1.00
C3       0.58967    0.74001    0.49817   1.00
C3       0.74629    0.89910    0.42107   1.00
C3       0.53905    0.79717    0.48066   1.00
H1       0.74784    0.77663    0.46022   1.00
H1       0.67783    0.75026    0.48547   1.00
C5       0.64477    0.89346    0.43640   1.00
C5       0.58535    0.85589    0.44838   1.00
H1       0.83334    0.82234    0.43536   1.00
H1       0.59099    0.71089    0.50991   1.00
H1       0.74525    0.93049    0.41006   1.00
H1       0.50351    0.81240    0.48010   1.00
O3       0.65236    0.94603    0.42412   1.00
O3       0.52739    0.85986    0.44459   1.00
Si1      0.68895    1.02374    0.43299   1.00
Si1      0.46520    0.79871    0.43180   1.00
C6       0.69372    1.06496    0.40981   1.00
C6       0.63098    1.02852    0.44981   1.00
C6       0.77090    1.05148    0.44310   1.00
C6       0.47386    0.72861    0.42413   1.00
C6       0.39538    0.77037    0.44831   1.00
C6       0.44976    0.83634    0.41058   1.00
C6       0.72177    1.04317    0.39125   1.00
H2       0.64004    1.04622    0.40641   1.00
C6       0.72937    1.14476    0.40853   1.00
H2       0.58211    0.98791    0.44418   1.00
C6       0.63356    1.01209    0.47274   1.00
C6       0.62503    1.09448    0.44975   1.00
H2       0.79461    1.03666    0.43122   1.00
C6       0.81860    1.13011    0.44619   1.00
C6       0.77831    1.01923    0.46338   1.00
C6       0.53686    0.74316    0.41081   1.00
C6       0.46573    0.67402    0.44018   1.00
H2       0.42971    0.70063    0.41425   1.00
H2       0.40693    0.74503    0.46047   1.00
C6       0.38651    0.82725    0.45898   1.00
C6       0.32365    0.71691    0.43990   1.00
H2       0.41847    0.85655    0.41657   1.00
C6       0.51319    0.89908    0.40111   1.00
C6       0.40868    0.78906    0.39239   1.00
H2       0.69261    0.98813    0.38878   1.00
H2       0.77518    1.05766    0.39346   1.00
H2       0.71818    1.06703    0.37724   1.00
H2       0.70384    1.15951    0.39721   1.00
H2       0.72840    1.16815    0.42283   1.00
H2       0.78263    1.16804    0.40382   1.00
H2       0.58699    1.00260    0.48054   1.00
H2       0.63733    0.96640    0.47478   1.00
H2       0.67647    1.05453    0.48043   1.00
H2       0.61298    1.10521    0.43465   1.00
H2       0.58383    1.08890    0.45968   1.00
H2       0.67218    1.13860    0.45504   1.00
H2       0.79352    1.15160    0.45525   1.00
H2       0.86628    1.14213    0.45381   1.00
H2       0.83397    1.15672    0.43176   1.00
H2       0.77484    1.04581    0.47674   1.00
H2       0.74032    0.96591    0.46515   1.00
H2       0.82812    1.02244    0.46391   1.00
H2       0.58201    0.75764    0.42002   1.00
H2       0.52672    0.69753    0.40233   1.00
H2       0.54918    0.78333    0.39974   1.00
H2       0.46281    0.62950    0.43271   1.00
H2       0.50853    0.69349    0.45066   1.00
H2       0.41899    0.65517    0.44901   1.00
H2       0.34954    0.80552    0.47136   1.00
H2       0.43439    0.86637    0.46568   1.00
H2       0.36856    0.85216    0.44850   1.00
H2       0.32448    0.67399    0.43267   1.00
H2       0.28645    0.69593    0.45225   1.00
H2       0.30496    0.73991    0.42894   1.00
H2       0.55011    0.88593    0.39519   1.00
H2       0.49877    0.92176    0.38883   1.00
H2       0.53867    0.93831    0.41255   1.00
H2       0.39357    0.81609    0.38172   1.00
H2       0.43899    0.77186    0.38403   1.00
H2       0.36192    0.74423    0.39745   1.00
C4       0.16729    -0.13515   0.45230   1.00
C4       0.19224    -0.16282   0.46731   1.00
C3       0.11862    -0.11462   0.45641   1.00
C3       0.16652    -0.17849   0.48742   1.00
C3       0.19121    -0.12834   0.43193   1.00
C3       0.24603    -0.17562   0.46213   1.00
C2       0.11685    -0.08282   0.42090   1.00
C2       0.24436    -0.22012   0.49665   1.00
C3       0.09377    -0.08954   0.44113   1.00
C3       0.19227    -0.20575   0.50175   1.00
C3       0.16647    -0.10173   0.41682   1.00
C3       0.26924    -0.20582   0.47653   1.00
H1       0.09996    -0.11708   0.47063   1.00
H1       0.12803    -0.17095   0.49222   1.00
C5       0.23990    -0.14789   0.42681   1.00
C5       0.27599    -0.15883   0.44257   1.00
H1       0.05823    -0.07597   0.44497   1.00
H1       0.17211    -0.21552   0.51612   1.00
H1       0.18550    -0.09537   0.40239   1.00
H1       0.30470    -0.21869   0.47219   1.00
O3       0.25425    -0.15202   0.40672   1.00
O3       0.33629    -0.15802   0.43851   1.00
Si1      0.21314    -0.22475   0.39477   1.00
Si1      0.40837    -0.08941   0.44377   1.00
C6       0.24473    -0.19339   0.37027   1.00
C6       0.24422    -0.27734   0.40381   1.00
C6       0.12367    -0.26124   0.39581   1.00
C6       0.40572    -0.02023   0.45527   1.00
C6       0.44852    -0.11950   0.46019   1.00
C6       0.45596    -0.06271   0.42113   1.00
C6       0.24301    -0.12771   0.36371   1.00
H2       0.29872    -0.17735   0.37180   1.00
C6       0.21910    -0.24164   0.35127   1.00
H2       0.29516    -0.23991   0.40906   1.00
C6       0.20795    -0.32446   0.42246   1.00
C6       0.25499    -0.32352   0.38833   1.00
H2       0.11707    -0.21800   0.39188   1.00
C6       0.08038    -0.31862   0.38005   1.00
C6       0.08541    -0.29010   0.41649   1.00
C6       0.36639    0.01050    0.44404   1.00
C6       0.38637    -0.02444   0.47825   1.00
H2       0.45920    0.01981    0.45489   1.00
H2       0.41841    -0.13189   0.47408   1.00
C6       0.44609    -0.18722   0.45371   1.00
C6       0.52395    -0.06846   0.46637   1.00
H2       0.47848    -0.09540   0.41991   1.00
C6       0.41446    -0.07520   0.40116   1.00
C6       0.51687    0.01234    0.41993   1.00
H2       0.26977    -0.08631   0.37460   1.00
H2       0.19065    -0.13779   0.36240   1.00
H2       0.26813    -0.10872   0.34907   1.00
H2       0.26037    -0.22555   0.34023   1.00
H2       0.20150    -0.29461   0.35503   1.00
H2       0.17740    -0.24005   0.34344   1.00
H2       0.24003    -0.34281   0.42914   1.00
H2       0.19799    -0.29765   0.43447   1.00
H2       0.15985    -0.36907   0.41804   1.00
H2       0.28862    -0.29352   0.37594   1.00
H2       0.27927    -0.34948   0.39554   1.00
H2       0.20643    -0.36268   0.38202   1.00
H2       0.09279    -0.35940   0.38058   1.00
H2       0.02555    -0.34145   0.38273   1.00
H2       0.08845    -0.29843   0.36472   1.00
H2       0.07174    -0.34315   0.41887   1.00
H2       0.11460    -0.26170   0.42960   1.00
H2       0.03796    -0.28842   0.41668   1.00
H2       0.31188    -0.01838   0.44715   1.00
H2       0.38450    0.06280    0.44908   1.00
H2       0.37361    0.01235    0.42768   1.00
H2       0.39632    0.02527    0.48377   1.00
H2       0.33266    -0.06025   0.48098   1.00
H2       0.41643    -0.03894   0.48777   1.00
H2       0.46167    -0.20780   0.46631   1.00
H2       0.39447    -0.22644   0.44948   1.00
H2       0.47982    -0.17950   0.44093   1.00
H2       0.53014    -0.02009   0.47172   1.00
H2       0.53985    -0.08952   0.47878   1.00
H2       0.55890    -0.05829   0.45371   1.00
H2       0.38708    -0.04700   0.40085   1.00
H2       0.44724    -0.06097   0.38778   1.00
H2       0.37722    -0.12903   0.39970   1.00
H2       0.54836    0.01938    0.40656   1.00
H2       0.49887    0.04891    0.41891   1.00
H2       0.55030    0.02549    0.43308   1.00
C4       0.30753    0.13481    0.04924   1.00
C4       0.35892    0.16125    0.03386   1.00
C3       0.27329    0.06565    0.05562   1.00
C3       0.37673    0.12003    0.02205   1.00
C3       0.28815    0.17932    0.05868   1.00
C3       0.39500    0.23284    0.02995   1.00
C2       0.20180    0.08455    0.07975   1.00
C2       0.46235    0.21839    0.00270   1.00
C3       0.22161    0.04108    0.07036   1.00
C3       0.42746    0.14785    0.00703   1.00
C3       0.23679    0.15383    0.07379   1.00
C3       0.44388    0.25945    0.01416   1.00
H1       0.28505    0.03115    0.04978   1.00
H1       0.35310    0.06854    0.02392   1.00
C5       0.32040    0.24907    0.05301   1.00
C5       0.38179    0.27744    0.04166   1.00
H1       0.19829    -0.00955   0.07426   1.00
H1       0.43862    0.11566    -0.00092   1.00
H1       0.22475    0.18677    0.08083   1.00
H1       0.46613    0.31014    0.01068   1.00
O3       0.29404    0.28896    0.05958   1.00
O3       0.42483    0.34726    0.04093   1.00
Si1      0.24006    0.29794    0.04533   1.00
Si1      0.49228    0.38172    0.05542   1.00
C6       0.21796    0.34154    0.06326   1.00
C6       0.28643    0.35158    0.02495   1.00
C6       0.16842    0.21960    0.03828   1.00
C6       0.50862    0.32743    0.07076   1.00
C6       0.55934    0.42457    0.03807   1.00
C6       0.48748    0.44338    0.07052   1.00
C6       0.20049    0.30991    0.08509   1.00
H2       0.26565    0.38982    0.06489   1.00
C6       0.16221    0.36135    0.05836   1.00
H2       0.33760    0.38047    0.03135   1.00
C6       0.29413    0.31811    0.00511   1.00
C6       0.26807    0.40615    0.01758   1.00
H2       0.15306    0.19238    0.05273   1.00
C6       0.10447    0.22173    0.03016   1.00
C6       0.17742    0.17147    0.02296   1.00
C6       0.45222    0.27946    0.08609   1.00
C6       0.53675    0.28361    0.06079   1.00
H2       0.55098    0.36376    0.08016   1.00
H2       0.56129    0.38352    0.03001   1.00
C6       0.54829    0.46702    0.02128   1.00
C6       0.63229    0.47155    0.04694   1.00
H2       0.50583    0.48766    0.06057   1.00
C6       0.41464    0.42684    0.07708   1.00
C6       0.53274    0.46905    0.09007   1.00
H2       0.24191    0.30401    0.09135   1.00
H2       0.15429    0.25981    0.08503   1.00
H2       0.19253    0.34263    0.09561   1.00
H2       0.17497    0.40943    0.06582   1.00
H2       0.15732    0.36780    0.04223   1.00
H2       0.11186    0.32346    0.06393   1.00
H2       0.33503    0.35616    -0.00441   1.00
H2       0.30748    0.27907    0.00829   1.00
H2       0.24731    0.29545    -0.00383   1.00
H2       0.27108    0.43954    0.02996   1.00
H2       0.30380    0.43940    0.00598   1.00
H2       0.21695    0.38199    0.01102   1.00
H2       0.11808    0.25762    0.01758   1.00
H2       0.06452    0.17175    0.02485   1.00
H2       0.08073    0.23591    0.04206   1.00
H2       0.17319    0.18375    0.00721   1.00
H2       0.22585    0.17310    0.02442   1.00
H2       0.13765    0.11850    0.02546   1.00
H2       0.41366    0.23275    0.07883   1.00
H2       0.47452    0.26435    0.09833   1.00
H2       0.42672    0.30413    0.09315   1.00
H2       0.55322    0.26053    0.07244   1.00
H2       0.49850    0.24209    0.05165   1.00
H2       0.58121    0.31420    0.05128   1.00
H2       0.58677    0.48186    0.00937   1.00
H2       0.49859    0.43729    0.01397   1.00
H2       0.55176    0.51346    0.02737   1.00
H2       0.64533    0.44531    0.05844   1.00
H2       0.67069    0.48722    0.03496   1.00
H2       0.63691    0.51780    0.05364   1.00
H2       0.38948    0.38143    0.08658   1.00
H2       0.41583    0.46923    0.08535   1.00
H2       0.38316    0.41799    0.06375   1.00
H2       0.53322    0.51405    0.09630   1.00
H2       0.51369    0.42996    0.10188   1.00
H2       0.58561    0.48384    0.08690   1.00
C4       0.82746    0.69358    0.04890   1.00
C4       0.80275    0.64207    0.03356   1.00
C3       0.80359    0.74038    0.05146   1.00
C3       0.75637    0.63619    0.01812   1.00
C3       0.87970    0.69979    0.06234   1.00
C3       0.82513    0.59328    0.03350   1.00
C2       0.88243    0.79847    0.07967   1.00
C2       0.75636    0.53738    0.00278   1.00
C3       0.83056    0.79163    0.06633   1.00
C3       0.73329    0.58492    0.00326   1.00
C3       0.90533    0.75103    0.07750   1.00
C3       0.80354    0.54382    0.01789   1.00
H1       0.76576    0.73845    0.04263   1.00
H1       0.73831    0.66923    0.01713   1.00
C5       0.90579    0.65460    0.06061   1.00
C5       0.86937    0.59438    0.04889   1.00
H1       0.81165    0.82434    0.06737   1.00
H1       0.69931    0.58278    -0.00742   1.00
H1       0.94145    0.75367    0.08739   1.00
H1       0.82340    0.51205    0.01731   1.00
O3       0.96351    0.66769    0.07123   1.00
O3       0.88080    0.54034    0.05150   1.00
Si1      1.03825    0.71043    0.06047   1.00
Si1      0.82724    0.47538    0.06516   1.00
C6       1.08757    0.71983    0.08224   1.00
C6       1.04454    0.65609    0.04253   1.00
C6       1.05556    0.79039    0.05093   1.00
C6       0.75527    0.47604    0.07528   1.00
C6       0.80025    0.40629    0.04843   1.00
C6       0.87439    0.46534    0.08476   1.00
C6       1.06720    0.74419    0.10194   1.00
H2       1.07470    0.66733    0.08530   1.00
C6       1.16755    0.76209    0.08150   1.00
H2       1.00894    0.60578    0.04862   1.00
C6       1.02041    0.65632    0.02031   1.00
C6       1.11413    0.65768    0.04029   1.00
H2       1.04101    0.81131    0.06367   1.00
C6       1.13177    0.84378    0.04608   1.00
C6       1.01517    0.79348    0.03195   1.00
C6       0.76763    0.53715    0.08917   1.00
C6       0.69441    0.46215    0.06097   1.00
H2       0.73360    0.43162    0.08526   1.00
H2       0.76900    0.41418    0.03738   1.00
C6       0.85755    0.40394    0.03576   1.00
C6       0.75446    0.33311    0.05731   1.00
H2       0.89711    0.43798    0.07756   1.00
C6       0.93596    0.53203    0.09322   1.00
C6       0.83464    0.42185    0.10370   1.00
H2       1.01350    0.71080    0.10572   1.00
H2       1.07601    0.79599    0.10020   1.00
H2       1.09661    0.74366    0.11503   1.00
H2       1.18899    0.73987    0.09181   1.00
H2       1.18795    0.76346    0.06647   1.00
H2       1.18758    0.81483    0.08636   1.00
H2       1.01319    0.61131    0.01203   1.00
H2       0.97166    0.65484    0.01986   1.00
H2       1.05796    0.70118    0.01200   1.00
H2       1.13102    0.64777    0.05475   1.00
H2       1.10980    0.61811    0.02986   1.00
H2       1.15368    0.70676    0.03439   1.00
H2       1.15427    0.82235    0.03590   1.00
H2       1.13704    0.88982    0.03895   1.00
H2       1.16215    0.86141    0.05983   1.00
H2       1.03943    0.79286    0.01771   1.00
H2       0.96297    0.75189    0.03129   1.00
H2       1.01305    0.84070    0.03220   1.00
H2       0.77528    0.58105    0.08033   1.00
H2       0.72349    0.52279    0.09896   1.00
H2       0.81153    0.55332    0.09908   1.00
H2       0.65036    0.45469    0.06984   1.00
H2       0.70715    0.50436    0.05066   1.00
H2       0.67711    0.41595    0.05199   1.00
H2       0.83517    0.36656    0.02351   1.00
H2       0.89139    0.45314    0.02864   1.00
H2       0.88854    0.38995    0.04505   1.00
H2       0.71161    0.32936    0.06595   1.00
H2       0.73291    0.29560    0.04505   1.00
H2       0.78369    0.31823    0.06711   1.00
H2       0.92000    0.56545    0.10020   1.00
H2       0.96477    0.52115    0.10443   1.00
H2       0.97092    0.56007    0.08098   1.00
H2       0.86760    0.41077    0.11316   1.00
H2       0.81586    0.44866    0.11313   1.00
H2       0.79129    0.37288    0.09932   1.00
C4       -0.13515   0.16728    0.04770   1.00
C4       -0.16283   0.19223    0.03269   1.00
C3       -0.11477   0.11850    0.04360   1.00
C3       -0.17863   0.16641    0.01259   1.00
C3       -0.12821   0.19131    0.06806   1.00
C3       -0.17549   0.24612    0.03786   1.00
C2       -0.08282   0.11684    0.07909   1.00
C2       -0.22012   0.24437    0.00336   1.00
C3       -0.08968   0.09366    0.05888   1.00
C3       -0.20589   0.19217    -0.00174   1.00
C3       -0.10160   0.16657    0.08317   1.00
C3       -0.20569   0.26934    0.02346   1.00
H1       -0.11732   0.09976    0.02938   1.00
H1       -0.17120   0.12785    0.00780   1.00
C5       -0.14762   0.24011    0.07317   1.00
C5       -0.15857   0.27617    0.05740   1.00
H1       -0.07620   0.05804    0.05505   1.00
H1       -0.21576   0.17194    -0.01610   1.00
H1       -0.09514   0.18568    0.09759   1.00
H1       -0.21846   0.30488    0.02779   1.00
O3       -0.15162   0.25458    0.09326   1.00
O3       -0.15762   0.33654    0.06144   1.00
Si1      -0.22430   0.21362    0.10524   1.00
Si1      -0.08896   0.40854    0.05615   1.00
C6       -0.19280   0.24531    0.12972   1.00
C6       -0.27683   0.24479    0.09621   1.00
C6       -0.26094   0.12414    0.10424   1.00
C6       -0.01992   0.40570    0.04463   1.00
C6       -0.11903   0.44870    0.03972   1.00
C6       -0.06209   0.45623    0.07877   1.00
C6       -0.12715   0.24349    0.13626   1.00
H2       -0.17667   0.29931    0.12817   1.00
C6       -0.24095   0.21983    0.14874   1.00
H2       -0.23937   0.29568    0.09094   1.00
C6       -0.32406   0.20849    0.07758   1.00
C6       -0.32287   0.25573    0.11170   1.00
H2       -0.21773   0.11747    0.10816   1.00
C6       -0.31827   0.08099    0.12003   1.00
C6       -0.28995   0.08579    0.08358   1.00
C6       0.01077    0.36633    0.05586   1.00
C6       -0.02427   0.38623    0.02166   1.00
H2       0.02020    0.45916    0.04498   1.00
H2       -0.13154   0.41852    0.02585   1.00
C6       -0.18665   0.44643    0.04622   1.00
C6       -0.06793   0.52408    0.03351   1.00
H2       -0.09470   0.47884    0.07999   1.00
C6       -0.07455   0.41482    0.09875   1.00
C6       0.01301    0.51707    0.07993   1.00
H2       -0.08579   0.27014    0.12536   1.00
H2       -0.13732   0.19110    0.13759   1.00
H2       -0.10806   0.26867    0.15089   1.00
H2       -0.22475   0.26117    0.15977   1.00
H2       -0.29393   0.20231    0.14501   1.00
H2       -0.23941   0.17813    0.15658   1.00
H2       -0.34237   0.24059    0.07089   1.00
H2       -0.29735   0.19840    0.06557   1.00
H2       -0.36870   0.16044    0.08203   1.00
H2       -0.29277   0.28940    0.12406   1.00
H2       -0.34880   0.28005    0.10449   1.00
H2       -0.36206   0.20723    0.11803   1.00
H2       -0.35899   0.09349    0.11950   1.00
H2       -0.34119   0.02614    0.11737   1.00
H2       -0.29801   0.08910    0.13535   1.00
H2       -0.34298   0.07220    0.08122   1.00
H2       -0.26158   0.11489    0.07045   1.00
H2       -0.28836   0.03829    0.08340   1.00
H2       -0.01820   0.31180    0.05278   1.00
H2       0.06303    0.38433    0.05080   1.00
H2       0.01271    0.37364    0.07221   1.00
H2       0.02539    0.39607    0.01612   1.00
H2       -0.06016   0.33252    0.01895   1.00
H2       -0.03874   0.41630    0.01213   1.00
H2       -0.20725   0.46200    0.03362   1.00
H2       -0.22592   0.39486    0.05048   1.00
H2       -0.17882   0.48024    0.05899   1.00
H2       -0.01961   0.53016    0.02814   1.00
H2       -0.08900   0.53997    0.02110   1.00
H2       -0.05764   0.55911    0.04615   1.00
H2       -0.04643   0.38736    0.09906   1.00
H2       -0.06020   0.44767    0.11211   1.00
H2       -0.12839   0.37765    0.10024   1.00
H2       0.02017    0.54864    0.09328   1.00
H2       0.04952    0.49899    0.08094   1.00
H2       0.02615    0.55044    0.06676   1.00
C4       0.53292    1.03005    0.88128   1.00
C4       0.50605    0.97694    0.86642   1.00
C3       0.60327    1.06906    0.88620   1.00
C3       0.54584    0.95339    0.85635   1.00
C3       0.48723    1.04473    0.89214   1.00
C3       0.43557    0.94529    0.86115   1.00
C2       0.58281    1.13430    0.91224   1.00
C2       0.44759    0.86821    0.83687   1.00
C3       0.62752    1.11948    0.90133   1.00
C3       0.51760    0.90097    0.84185   1.00
C3       0.51287    1.09668    0.90708   1.00
C3       0.40750    0.89059    0.84714   1.00
H1       0.63897    1.06213    0.87889   1.00
H1       0.59641    0.97333    0.85935   1.00
C5       0.41628    1.00764    0.88795   1.00
C5       0.39331    0.96790    0.87001   1.00
H1       0.67888    1.14571    0.90434   1.00
H1       0.54895    0.88645    0.83493   1.00
H1       0.47974    1.10793    0.91435   1.00
H1       0.35613    0.86559    0.84450   1.00
O3       0.37137    1.01388    0.90065   1.00
O3       0.32920    0.94775    0.86231   1.00
Si1      0.33546    0.95995    0.91928   1.00
Si1      0.32214    0.99012    0.84334   1.00
C6       0.29687    1.00209    0.93110   1.00
C6       0.27387    0.88172    0.90860   1.00
C6       0.39467    0.95493    0.93557   1.00
C6       0.39750    1.05820    0.83297   1.00
C6       0.28028    0.92701    0.82479   1.00
C6       0.26653    1.01910    0.85107   1.00
C6       0.34379    1.08086    0.93426   1.00
H2       0.25914    0.99673    0.91983   1.00
C6       0.25633    0.97481    0.95149   1.00
H2       0.26185    0.89816    0.89440   1.00
C6       0.29608    0.82887    0.90251   1.00
C6       0.20408    0.83909    0.91981   1.00
H2       0.43148    1.00868    0.93833   1.00
C6       0.36837    0.92202    0.95697   1.00
C6       0.43668    0.92140    0.92773   1.00
C6       0.44617    1.11739    0.84744   1.00
C6       0.44439    1.04238    0.81924   1.00
H2       0.37748    1.08116    0.82246   1.00
H2       0.31858    0.91401    0.82009   1.00
C6       0.21797    0.85846    0.83225   1.00
C6       0.25670    0.94783    0.80509   1.00
H2       0.21577    0.97484    0.84902   1.00
C6       0.26975    1.03859    0.87389   1.00
C6       0.26695    1.07845    0.83875   1.00
H2       0.36650    1.10682    0.91999   1.00
H2       0.38514    1.09198    0.94488   1.00
H2       0.31481    1.10380    0.94021   1.00
H2       0.21399    0.98503    0.95195   1.00
H2       0.23504    0.92023    0.95348   1.00
H2       0.28793    0.99991    0.96476   1.00
H2       0.25855    0.79006    0.89236   1.00
H2       0.34438    0.85263    0.89439   1.00
H2       0.30052    0.80265    0.91582   1.00
H2       0.17889    0.86889    0.92219   1.00
H2       0.16865    0.79458    0.91088   1.00
H2       0.21088    0.82063    0.93444   1.00
H2       0.32326    0.87144    0.95565   1.00
H2       0.40707    0.91674    0.96543   1.00
H2       0.35619    0.95375    0.96643   1.00
H2       0.40959    0.86629    0.93005   1.00
H2       0.44933    0.93016    0.91176   1.00
H2       0.48494    0.94230    0.93598   1.00
H2       0.48015    1.10494    0.85572   1.00
H2       0.47841    1.16374    0.83876   1.00
H2       0.41829    1.13004    0.85841   1.00
H2       0.48316    1.08878    0.81174   1.00
H2       0.47135    1.02226    0.82788   1.00
H2       0.41590    1.00631    0.80718   1.00
H2       0.20288    0.81896    0.82064   1.00
H2       0.23056    0.83946    0.84586   1.00
H2       0.17376    0.86391    0.83562   1.00
H2       0.29782    0.99441    0.79843   1.00
H2       0.24064    0.90784    0.79359   1.00
H2       0.21350    0.95540    0.80807   1.00
H2       0.31949    1.08112    0.87810   1.00
H2       0.23104    1.05213    0.87767   1.00
H2       0.25995    0.99534    0.88332   1.00
H2       0.22360    1.08455    0.84298   1.00
H2       0.31341    1.12704    0.84156   1.00
H2       0.26290    1.06860    0.82248   1.00
C4       -0.02371   0.50202    0.88323   1.00
C4       0.02779    0.52675    0.86788   1.00
C3       -0.02176   0.46725    0.90091   1.00
C3       0.08301    0.51378    0.86775   1.00
C3       -0.08113   0.51138    0.88077   1.00
C3       0.02459    0.56691    0.85168   1.00
C2       -0.13154   0.45059    0.91307   1.00
C2       0.12903    0.57728    0.83604   1.00
C3       -0.07435   0.44189    0.91537   1.00
C3       0.13261    0.53887    0.85238   1.00
C3       -0.13303   0.48654    0.89572   1.00
C3       0.07344    0.58923    0.83589   1.00
H1       0.01804    0.45954    0.90384   1.00
H1       0.08859    0.48538    0.87876   1.00
C5       -0.08621   0.54575    0.86344   1.00
C5       -0.02759   0.58410    0.85122   1.00
H1       -0.07040   0.41671    0.92779   1.00
H1       0.17172    0.52838    0.85317   1.00
H1       -0.17297   0.49529    0.89403   1.00
H1       0.06796    0.61417    0.82374   1.00
O3       -0.14643   0.54472    0.85942   1.00
O3       -0.02409   0.63346    0.83814   1.00
Si1      -0.20283   0.48641    0.84442   1.00
Si1      0.01903    0.71329    0.84502   1.00
C6       -0.26875   0.50508    0.84865   1.00
C6       -0.17112   0.50735    0.81946   1.00
C6       -0.22742   0.40249    0.85207   1.00
C6       0.06180    0.73303    0.86862   1.00
C6       0.07887    0.75141    0.82542   1.00
C6       -0.03716   0.74582    0.84406   1.00
C6       -0.28333   0.51368    0.87139   1.00
H2       -0.24769   0.55577    0.84195   1.00
C6       -0.34082   0.46095    0.83865   1.00
H2       -0.13692   0.56233    0.82055   1.00
C6       -0.12660   0.47766    0.81113   1.00
C6       -0.22199   0.49705    0.80192   1.00
H2       -0.23724   0.40371    0.86825   1.00
C6       -0.29492   0.34326    0.84284   1.00
C6       -0.17513   0.37628    0.85028   1.00
C6       0.01872    0.69897    0.88811   1.00
C6       0.12900    0.72976    0.87086   1.00
H2       0.07913    0.78727    0.87020   1.00
H2       0.11349    0.73152    0.82756   1.00
C6       0.05077    0.73073    0.80330   1.00
C6       0.12403    0.83090    0.82560   1.00
H2       -0.03827   0.75733    0.82803   1.00
C6       -0.11295   0.69518    0.84970   1.00
C6       -0.01687   0.81346    0.85580   1.00
H2       -0.23737   0.55228    0.87906   1.00
H2       -0.30265   0.46580    0.87973   1.00
H2       -0.32101   0.53024    0.87261   1.00
H2       -0.36303   0.49296    0.83518   1.00
H2       -0.33906   0.43679    0.82460   1.00
H2       -0.37674   0.42069    0.84874   1.00
H2       -0.09861   0.50534    0.79757   1.00
H2       -0.08848   0.48232    0.82205   1.00
H2       -0.15814   0.42407    0.80695   1.00
H2       -0.24910   0.52467    0.80489   1.00
H2       -0.19521   0.51675    0.78753   1.00
H2       -0.25909   0.44308    0.79975   1.00
H2       -0.29402   0.34546    0.82629   1.00
H2       -0.30355   0.29300    0.84732   1.00
H2       -0.33927   0.34503    0.84830   1.00
H2       -0.17668   0.35462    0.83537   1.00
H2       -0.12278   0.41554    0.85296   1.00
H2       -0.18717   0.33608    0.86145   1.00
H2       0.01089    0.64793    0.89046   1.00
H2       0.04492    0.72888    0.90157   1.00
H2       -0.03100   0.69543    0.88760   1.00
H2       0.15425    0.75242    0.88525   1.00
H2       0.11949    0.67769    0.87070   1.00
H2       0.16584    0.75832    0.85897   1.00
H2       0.09285    0.74746    0.79250   1.00
H2       0.01944    0.67541    0.80173   1.00
H2       0.02016    0.75340    0.79874   1.00
H2       0.14758    0.84993    0.84038   1.00
H2       0.16552    0.84768    0.81458   1.00
H2       0.09440    0.85521    0.82159   1.00
H2       -0.11846   0.67758    0.86534   1.00
H2       -0.14505   0.71807    0.84756   1.00
H2       -0.13312   0.65076    0.83990   1.00
H2       -0.05001   0.83369    0.85153   1.00
H2       -0.02125   0.80526    0.87219   1.00
H2       0.03519    0.85310    0.85238   1.00
C4       0.49895    0.47502    0.88317   1.00
C4       0.47408    0.50156    0.86779   1.00
C3       0.54366    0.51536    0.89894   1.00
C3       0.49623    0.57199    0.86556   1.00
C3       0.47919    0.40448    0.88272   1.00
C3       0.42412    0.45562    0.85378   1.00
C2       0.54969    0.41824    0.91311   1.00
C2       0.42244    0.55136    0.83600   1.00
C3       0.56866    0.48788    0.91344   1.00
C3       0.47068    0.59618    0.85023   1.00
C3       0.50395    0.37748    0.89771   1.00
C3       0.40120    0.48134    0.83792   1.00
H1       0.55918    0.56583    0.90040   1.00
H1       0.53189    0.60784    0.87494   1.00
C5       0.43458    0.36132    0.86736   1.00
C5       0.39771    0.38438    0.85555   1.00
H1       0.60125    0.51963    0.92440   1.00
H1       0.48813    0.64759    0.84946   1.00
H1       0.48784    0.32640    0.89752   1.00
H1       0.36873    0.44827    0.82725   1.00
O3       0.42472    0.29656    0.86494   1.00
O3       0.34035    0.33850    0.84489   1.00
Si1      0.47145    0.28321    0.84878   1.00
Si1      0.26531    0.31514    0.85441   1.00
C6       0.44337    0.19784    0.85563   1.00
C6       0.44345    0.28835    0.82423   1.00
C6       0.55987    0.33567    0.85295   1.00
C6       0.26105    0.35211    0.87759   1.00
C6       0.22571    0.33683    0.83525   1.00
C6       0.22182    0.22561    0.85653   1.00
C6       0.44175    0.18347    0.87895   1.00
H2       0.39003    0.17195    0.85088   1.00
C6       0.47482    0.15699    0.84552   1.00
H2       0.39091    0.27562    0.82705   1.00
C6       0.47817    0.35925    0.81335   1.00
C6       0.43907    0.23661    0.80773   1.00
H2       0.56400    0.33044    0.86929   1.00
C6       0.60834    0.31359    0.84276   1.00
C6       0.59490    0.41428    0.84852   1.00
C6       0.29886    0.34456    0.89639   1.00
C6       0.27576    0.42747    0.87785   1.00
H2       0.20690    0.32228    0.88130   1.00
H2       0.25300    0.39245    0.83548   1.00
C6       0.23386    0.31690    0.81310   1.00
C6       0.14848    0.31332    0.83806   1.00
H2       0.20259    0.20778    0.84125   1.00
C6       0.26627    0.19277    0.86169   1.00
C6       0.15828    0.19083    0.87088   1.00
H2       0.41118    0.20059    0.88718   1.00
H2       0.49309    0.20931    0.88540   1.00
H2       0.41895    0.12889    0.88196   1.00
H2       0.43601    0.10312    0.84422   1.00
H2       0.49468    0.17515    0.83040   1.00
H2       0.51628    0.15898    0.85452   1.00
H2       0.44733    0.35879    0.80052   1.00
H2       0.48374    0.39990    0.82338   1.00
H2       0.52833    0.37234    0.80748   1.00
H2       0.40691    0.18399    0.81272   1.00
H2       0.41615    0.24174    0.79371   1.00
H2       0.48964    0.24491    0.80395   1.00
H2       0.59908    0.30610    0.82645   1.00
H2       0.66219    0.35146    0.84499   1.00
H2       0.60200    0.26690    0.84943   1.00
H2       0.61123    0.42633    0.83275   1.00
H2       0.56246    0.43566    0.85167   1.00
H2       0.64042    0.44207    0.85795   1.00
H2       0.35275    0.38316    0.89646   1.00
H2       0.27694    0.35075    0.91045   1.00
H2       0.29478    0.29462    0.89704   1.00
H2       0.26178    0.43956    0.89252   1.00
H2       0.32941    0.46423    0.87543   1.00
H2       0.24607    0.43631    0.86648   1.00
H2       0.21796    0.34240    0.80210   1.00
H2       0.28700    0.33279    0.80971   1.00
H2       0.20320    0.26209    0.81050   1.00
H2       0.13825    0.32702    0.85299   1.00
H2       0.13235    0.33805    0.82686   1.00
H2       0.11646    0.25828    0.83606   1.00
H2       0.29077    0.20888    0.87648   1.00
H2       0.23619    0.13713    0.86154   1.00
H2       0.30606    0.20751    0.85038   1.00
H2       0.12993    0.13563    0.86852   1.00
H2       0.17330    0.19996    0.88683   1.00
H2       0.12280    0.20919    0.86803   1.00
C4       0.36235    0.20003    0.28506   1.00
C4       0.30927    0.17280    0.29994   1.00
C3       0.38659    0.26447    0.27564   1.00
C3       0.27099    0.20437    0.30550   1.00
C3       0.39253    0.16061    0.27893   1.00
C3       0.29319    0.11064    0.30996   1.00
C2       0.46751    0.25002    0.25439   1.00
C2       0.20168    0.11370    0.32982   1.00
C3       0.43744    0.28865    0.26064   1.00
C3       0.21910    0.17600    0.32017   1.00
C3       0.44466    0.18647    0.26405   1.00
C3       0.23878    0.08142    0.32406   1.00
H1       0.36818    0.29584    0.27944   1.00
H1       0.27937    0.24867    0.29897   1.00
C5       0.37066    0.09576    0.28776   1.00
C5       0.33099    0.07762    0.30575   1.00
H1       0.45258    0.33543    0.25425   1.00
H1       0.19351    0.20139    0.32370   1.00
H1       0.46716    0.15846    0.26021   1.00
H1       0.22505    0.03474    0.33013   1.00
O3       0.39146    0.05325    0.27950   1.00
O3       0.32562    0.02556    0.31797   1.00
Si1      0.34370    -0.00370   0.26269   1.00
Si1      0.37248    0.04499    0.33838   1.00
C6       0.40247    -0.03001   0.25595   1.00
C6       0.27288    -0.06887   0.27560   1.00
C6       0.32347    0.03133    0.24169   1.00
C6       0.42588    0.13217    0.34433   1.00
C6       0.31208    0.00529    0.35776   1.00
C6       0.42094    0.00393    0.33661   1.00
C6       0.47713    0.02859    0.25158   1.00
H2       0.40577    -0.05426   0.26989   1.00
C6       0.38574    -0.08399   0.23872   1.00
H2       0.29289    -0.06419   0.29094   1.00
C6       0.20743    -0.06262   0.27781   1.00
C6       0.24625    -0.14465   0.26924   1.00
H2       0.37315    0.07473    0.23772   1.00
C6       0.29664    -0.01360   0.22210   1.00
C6       0.27374    0.06025    0.24458   1.00
C6       0.47959    0.17887    0.32818   1.00
C6       0.39379    0.17412    0.35309   1.00
H2       0.45576    0.12990    0.35699   1.00
H2       0.28649    0.03520    0.35861   1.00
C6       0.25420    -0.06966   0.35351   1.00
C6       0.33954    0.00565    0.37955   1.00
H2       0.38573    -0.04831   0.34142   1.00
C6       0.44417    -0.00293   0.31491   1.00
C6       0.48528    0.02992    0.35053   1.00
H2       0.49803    0.06387    0.26435   1.00
H2       0.47914    0.05785    0.23815   1.00
H2       0.51129    0.00822    0.24907   1.00
H2       0.40889    -0.11514   0.24223   1.00
H2       0.33135    -0.11839   0.23676   1.00
H2       0.40625    -0.06017   0.22404   1.00
H2       0.17370    -0.09729   0.28952   1.00
H2       0.21945    -0.01162   0.28237   1.00
H2       0.17858    -0.07563   0.26366   1.00
H2       0.28657    -0.15760   0.27009   1.00
H2       0.20575    -0.18014   0.27939   1.00
H2       0.22551    -0.15437   0.25386   1.00
H2       0.25295    -0.06367   0.22549   1.00
H2       0.28097    0.01016    0.21043   1.00
H2       0.33627    -0.02029   0.21505   1.00
H2       0.22041    0.02084    0.24276   1.00
H2       0.27818    0.08355    0.25926   1.00
H2       0.28441    0.09951    0.23319   1.00
H2       0.45725    0.19687    0.31685   1.00
H2       0.52108    0.22405    0.33542   1.00
H2       0.50258    0.15302    0.32036   1.00
H2       0.43364    0.22375    0.35864   1.00
H2       0.36493    0.18400    0.34175   1.00
H2       0.36037    0.14873    0.36597   1.00
H2       0.21331    -0.08564   0.36469   1.00
H2       0.23113    -0.07423   0.33861   1.00
H2       0.27291    -0.10564   0.35419   1.00
H2       0.37903    0.05666    0.38409   1.00
H2       0.29840    -0.01132   0.39070   1.00
H2       0.36028    -0.02864   0.38060   1.00
H2       0.47798    0.04656    0.30804   1.00
H2       0.47037    -0.03240   0.31500   1.00
H2       0.39997    -0.02976   0.30513   1.00
H2       0.50456    -0.00576   0.35032   1.00
H2       0.52655    0.07949    0.34550   1.00
H2       0.47368    0.03460    0.36629   1.00
C4       0.83360    0.63570    0.28565   1.00
C4       0.86032    0.68866    0.30056   1.00
C3       0.84160    0.57744    0.28657   1.00
C3       0.90288    0.69178    0.31683   1.00
C3       0.79767    0.64127    0.26865   1.00
C3       0.84380    0.74169    0.29933   1.00
C2       0.78098    0.53251    0.25438   1.00
C2       0.91357    0.79830    0.32983   1.00
C3       0.81638    0.52744    0.27131   1.00
C3       0.92827    0.74472    0.33118   1.00
C3       0.77150    0.58964    0.25361   1.00
C3       0.87228    0.79612    0.31344   1.00
H1       0.86579    0.56950    0.29838   1.00
H1       0.91704    0.65592    0.31867   1.00
C5       0.78786    0.69822    0.26681   1.00
C5       0.79950    0.74054    0.28395   1.00
H1       0.82414    0.48667    0.27272   1.00
H1       0.95834    0.74402    0.34273   1.00
H1       0.74420    0.59337    0.24179   1.00
H1       0.86351    0.83591    0.31159   1.00
O3       0.76348    0.70923    0.24890   1.00
O3       0.77221    0.78312    0.28482   1.00
Si1      0.81687    0.75907    0.23164   1.00
Si1      0.70296    0.75933    0.29802   1.00
C6       0.75628    0.74153    0.21233   1.00
C6       0.85236    0.84361    0.24043   1.00
C6       0.87679    0.73492    0.22428   1.00
C6       0.66775    0.68123    0.31135   1.00
C6       0.72732    0.82652    0.31533   1.00
C6       0.64178    0.75924    0.28150   1.00
C6       0.70343    0.66426    0.20864   1.00
H2       0.72669    0.76335    0.21855   1.00
C6       0.77897    0.77346    0.19061   1.00
H2       0.81290    0.83968    0.25076   1.00
C6       0.91939    0.87437    0.25327   1.00
C6       0.86400    0.90071    0.22490   1.00
H2       0.84444    0.68011    0.22180   1.00
C6       0.91598    0.76492    0.20388   1.00
C6       0.93391    0.74392    0.23959   1.00
C6       0.64832    0.61501    0.29901   1.00
C6       0.70301    0.67662    0.33126   1.00
H2       0.61934    0.67500    0.31670   1.00
H2       0.76237    0.82138    0.32555   1.00
C6       0.76886    0.90029    0.30638   1.00
C6       0.67023    0.82536    0.32896   1.00
H2       0.65517    0.81269    0.28079   1.00
C6       0.64406    0.73868    0.25907   1.00
C6       0.56504    0.71855    0.28804   1.00
H2       0.67627    0.63922    0.22256   1.00
H2       0.72845    0.63691    0.20298   1.00
H2       0.66474    0.65808    0.19759   1.00
H2       0.74029    0.78322    0.18406   1.00
H2       0.82693    0.82149    0.19068   1.00
H2       0.78469    0.73933    0.18011   1.00
H2       0.92780    0.92024    0.26129   1.00
H2       0.91732    0.83912    0.26484   1.00
H2       0.96378    0.88872    0.24365   1.00
H2       0.81687    0.88877    0.21706   1.00
H2       0.88123    0.94959    0.23251   1.00
H2       0.90265    0.90814    0.21369   1.00
H2       0.94074    0.82050    0.20372   1.00
H2       0.95526    0.75107    0.20127   1.00
H2       0.88200    0.74469    0.19091   1.00
H2       0.97896    0.79462    0.23867   1.00
H2       0.91745    0.73589    0.25528   1.00
H2       0.95046    0.70714    0.23619   1.00
H2       0.69222    0.60835    0.29658   1.00
H2       0.61027    0.56998    0.30721   1.00
H2       0.62645    0.61476    0.28428   1.00
H2       0.67033    0.62863    0.33918   1.00
H2       0.75109    0.67835    0.32827   1.00
H2       0.71256    0.71722    0.34194   1.00
H2       0.79142    0.93781    0.31859   1.00
H2       0.81096    0.90597    0.29688   1.00
H2       0.73697    0.91364    0.29729   1.00
H2       0.63969    0.77609    0.33638   1.00
H2       0.69278    0.86360    0.34100   1.00
H2       0.63630    0.83684    0.32018   1.00
H2       0.63395    0.68643    0.25779   1.00
H2       0.60727    0.74380    0.24961   1.00
H2       0.69417    0.77211    0.25270   1.00
H2       0.53382    0.73089    0.27820   1.00
H2       0.54479    0.66354    0.28715   1.00
H2       0.55782    0.73098    0.30348   1.00
C4       0.80188    0.16613    0.28564   1.00
C4       0.82819    0.13945    0.30054   1.00
C3       0.73447    0.15528    0.28604   1.00
C3       0.78798    0.09423    0.31624   1.00
C3       0.84458    0.20504    0.26917   1.00
C3       0.89861    0.15879    0.29990   1.00
C2       0.75143    0.21895    0.25439   1.00
C2       0.88485    0.08650    0.32982   1.00
C3       0.70978    0.18061    0.27080   1.00
C3       0.81563    0.06897    0.33060   1.00
C3       0.81911    0.23123    0.25415   1.00
C3       0.92478    0.13047    0.31398   1.00
H1       0.70142    0.12885    0.29746   1.00
H1       0.73733    0.07798    0.31764   1.00
C5       0.91252    0.21779    0.26787   1.00
C5       0.94242    0.20576    0.28513   1.00
H1       0.66042    0.17072    0.27181   1.00
H1       0.78426    0.03690    0.34172   1.00
H1       0.85091    0.26065    0.24273   1.00
H1       0.97419    0.14140    0.31253   1.00
O3       0.94959    0.24525    0.25038   1.00
O3       1.01245    0.23540    0.28666   1.00
Si1      0.95033    0.19498    0.23275   1.00
Si1      1.05427    0.30349    0.30063   1.00
C6       0.99376    0.25832    0.21415   1.00
C6       1.00100    0.16145    0.24164   1.00
C6       0.86801    0.13362    0.22441   1.00
C6       1.00737    0.33442    0.31389   1.00
C6       1.09713    0.27957    0.31806   1.00
C6       1.11577    0.36787    0.28496   1.00
C6       0.96686    0.30928    0.21066   1.00
H2       1.04422    0.28875    0.22093   1.00
C6       1.00667    0.23911    0.19237   1.00
H2       1.03435    0.20035    0.25247   1.00
C6       0.96554    0.09289    0.25377   1.00
C6       1.04972    0.15392    0.22635   1.00
H2       0.84390    0.16450    0.22199   1.00
C6       0.86270    0.09732    0.20370   1.00
C6       0.81970    0.07391    0.23900   1.00
C6       0.96011    0.35277    0.30136   1.00
C6       0.96598    0.29589    0.33327   1.00
H2       1.04766    0.38293    0.31985   1.00
H2       1.05650    0.24236    0.32776   1.00
C6       1.13292    0.24146    0.30906   1.00
C6       1.15013    0.33619    0.33245   1.00
H2       1.15735    0.35664    0.28444   1.00
C6       1.09509    0.36726    0.26237   1.00
C6       1.14838    0.44363    0.29225   1.00
H2       0.96623    0.33427    0.22476   1.00
H2       0.91515    0.28320    0.20447   1.00
H2       0.99957    0.34979    0.20010   1.00
H2       1.05514    0.27978    0.18642   1.00
H2       1.00889    0.19227    0.19212   1.00
H2       0.96743    0.23299    0.18157   1.00
H2       1.00325    0.08539    0.26198   1.00
H2       0.93025    0.09210    0.26511   1.00
H2       0.93795    0.04935    0.24365   1.00
H2       1.08442    0.20241    0.21908   1.00
H2       1.08196    0.13760    0.23406   1.00
H2       1.02085    0.11611    0.21468   1.00
H2       0.89530    0.07453    0.20359   1.00
H2       0.81051    0.05692    0.20046   1.00
H2       0.87668    0.13264    0.19107   1.00
H2       0.82760    0.03027    0.23782   1.00
H2       0.82579    0.08852    0.25484   1.00
H2       0.76637    0.05579    0.23512   1.00
H2       0.91074    0.30795    0.29829   1.00
H2       0.95034    0.38866    0.30976   1.00
H2       0.98288    0.37681    0.28694   1.00
H2       0.94798    0.32621    0.34130   1.00
H2       0.92115    0.24724    0.32964   1.00
H2       0.99691    0.28669    0.34409   1.00
H2       1.14782    0.21867    0.32122   1.00
H2       1.09870    0.19986    0.29904   1.00
H2       1.17872    0.27567    0.30050   1.00
H2       1.12879    0.36432    0.33994   1.00
H2       1.16579    0.31345    0.34443   1.00
H2       1.19598    0.37236    0.32422   1.00
H2       1.05175    0.37543    0.26086   1.00
H2       1.13731    0.40615    0.25345   1.00
H2       1.08104    0.31834    0.25555   1.00
H2       1.19259    0.47720    0.28293   1.00
H2       1.11208    0.46198    0.29125   1.00
H2       1.16638    0.44975    0.30786   1.00
C4       0.80393    0.64243    0.78360   1.00
C4       0.82974    0.69379    0.79900   1.00
C3       0.75053    0.63148    0.77010   1.00
C3       0.80067    0.73508    0.80364   1.00
C3       0.83201    0.59858    0.78165   1.00
C3       0.88796    0.70512    0.81047   1.00
C2       0.75229    0.53527    0.75353   1.00
C2       0.88399    0.79554    0.83068   1.00
C3       0.72512    0.57915    0.75556   1.00
C3       0.82741    0.78500    0.81891   1.00
C3       0.80653    0.54691    0.76663   1.00
C3       0.91230    0.75366    0.82637   1.00
H1       0.72868    0.66134    0.77040   1.00
H1       0.75897    0.72983    0.79615   1.00
C5       0.88553    0.60681    0.79467   1.00
C5       0.92124    0.66764    0.80617   1.00
H1       0.68610    0.57334    0.74631   1.00
H1       0.80465    0.81376    0.82148   1.00
H1       0.82845    0.51708    0.76504   1.00
H1       0.95127    0.75811    0.83529   1.00
O3       0.90460    0.55779    0.79505   1.00
O3       0.98474    0.68679    0.81417   1.00
Si1      0.87080    0.49628    0.81171   1.00
Si1      1.05245    0.74486    0.80243   1.00
C6       0.90533    0.44741    0.80194   1.00
C6       0.90645    0.53155    0.83551   1.00
C6       0.78080    0.45032    0.81099   1.00
C6       1.04107    0.78270    0.78043   1.00
C6       1.09406    0.80755    0.82112   1.00
C6       1.10374    0.70870    0.79690   1.00
C6       0.89859    0.43518    0.77844   1.00
H2       0.95980    0.48050    0.80474   1.00
C6       0.88666    0.37667    0.81151   1.00
H2       0.95504    0.57568    0.83120   1.00
C6       0.86961    0.56017    0.84901   1.00
C6       0.92487    0.48912    0.85031   1.00
H2       0.77059    0.44061    0.79477   1.00
C6       0.74399    0.37873    0.82155   1.00
C6       0.73979    0.48550    0.81833   1.00
C6       0.99929    0.73493    0.76247   1.00
C6       1.01703    0.83637    0.78259   1.00
H2       1.09311    0.81276    0.77473   1.00
H2       1.06127    0.82967    0.82303   1.00
C6       1.09908    0.78123    0.84266   1.00
C6       1.16673    0.86802    0.81597   1.00
H2       1.13050    0.71323    0.81110   1.00
C6       1.06537    0.63102    0.79187   1.00
C6       1.16040    0.74388    0.78032   1.00
H2       0.92057    0.48323    0.77009   1.00
H2       0.84521    0.40414    0.77391   1.00
H2       0.92570    0.40914    0.77344   1.00
H2       0.93021    0.36844    0.81044   1.00
H2       0.87260    0.37270    0.82742   1.00
H2       0.84452    0.33409    0.80359   1.00
H2       0.90351    0.59297    0.86100   1.00
H2       0.85448    0.59134    0.84034   1.00
H2       0.82448    0.51902    0.85630   1.00
H2       0.95940    0.47478    0.84320   1.00
H2       0.95127    0.51867    0.86381   1.00
H2       0.87911    0.44306    0.85540   1.00
H2       0.76065    0.38220    0.83726   1.00
H2       0.68850    0.35620    0.82158   1.00
H2       0.75335    0.34232    0.81351   1.00
H2       0.73008    0.47968    0.83463   1.00
H2       0.76511    0.53960    0.81509   1.00
H2       0.69015    0.46233    0.81078   1.00
H2       0.94461    0.71309    0.76466   1.00
H2       1.01231    0.76352    0.74823   1.00
H2       1.00967    0.69331    0.76035   1.00
H2       1.02171    0.86192    0.76810   1.00
H2       0.96391    0.81317    0.78719   1.00
H2       1.04795    0.87645    0.79342   1.00
H2       1.11491    0.82194    0.85390   1.00
H2       1.04975    0.73940    0.84764   1.00
H2       1.13588    0.76350    0.84304   1.00
H2       1.16765    0.89106    0.80135   1.00
H2       1.18297    0.90829    0.82738   1.00
H2       1.20455    0.85152    0.81571   1.00
H2       1.03425    0.61932    0.77823   1.00
H2       1.10068    0.61185    0.78981   1.00
H2       1.03188    0.60259    0.80435   1.00
H2       1.19503    0.72333    0.78051   1.00
H2       1.13840    0.73580    0.76513   1.00
H2       1.19156    0.79862    0.78287   1.00
C4       0.36022    0.16992    0.78439   1.00
C4       0.30744    0.14304    0.79935   1.00
C3       0.36189    0.21069    0.76780   1.00
C3       0.24801    0.14901    0.79820   1.00
C3       0.41408    0.15463    0.78577   1.00
C3       0.31389    0.10829    0.81653   1.00
C2       0.46695    0.21950    0.75421   1.00
C2       0.20224    0.08595    0.83000   1.00
C3       0.41354    0.23450    0.75305   1.00
C3       0.19714    0.12183    0.81320   1.00
C3       0.46641    0.18019    0.77095   1.00
C3       0.26070    0.07875    0.83101   1.00
H1       0.32575    0.22449    0.76597   1.00
H1       0.23972    0.17291    0.78638   1.00
C5       0.41548    0.11415    0.80199   1.00
C5       0.37301    0.10263    0.81909   1.00
H1       0.41181    0.26336    0.74131   1.00
H1       0.15556    0.12821    0.81166   1.00
H1       0.50572    0.17040    0.77245   1.00
H1       0.26407    0.05031    0.84252   1.00
O3       0.46063    0.09012    0.80146   1.00
O3       0.38653    0.08157    0.83731   1.00
Si1      0.43649    0.01458    0.79214   1.00
Si1      0.42534    0.13788    0.85516   1.00
C6       0.51729    0.02065    0.79240   1.00
C6       0.38096    -0.04592   0.80991   1.00
C6       0.40393    0.00354    0.76724   1.00
C6       0.44562    0.22293    0.85060   1.00
C6       0.36843    0.10465    0.87565   1.00
C6       0.49950    0.13522    0.86155   1.00
C6       0.57762    0.08809    0.78348   1.00
H2       0.52778    0.02238    0.80863   1.00
C6       0.52736    -0.03825   0.78368   1.00
H2       0.39721    -0.01707   0.82405   1.00
C6       0.30282    -0.07211   0.80809   1.00
C6       0.38627    -0.11135   0.81369   1.00
H2       0.44242    0.04996    0.75971   1.00
C6       0.39913    -0.05738   0.75463   1.00
C6       0.33341    -0.00055   0.76352   1.00
C6       0.49081    0.26048    0.83174   1.00
C6       0.38768    0.24157    0.85115   1.00
H2       0.47700    0.24965    0.86374   1.00
H2       0.32562    0.11092    0.87104   1.00
C6       0.33709    0.02654    0.87982   1.00
C6       0.39321    0.14139    0.89659   1.00
H2       0.48123    0.09150    0.87173   1.00
C6       0.53546    0.11967    0.84389   1.00
C6       0.55724    0.19726    0.87337   1.00
H2       0.58197    0.13309    0.79100   1.00
H2       0.57080    0.09253    0.76725   1.00
H2       0.62644    0.09004    0.78562   1.00
H2       0.56667    -0.04186   0.79232   1.00
H2       0.48123    -0.08783   0.78434   1.00
H2       0.54445    -0.02928   0.76791   1.00
H2       0.27636    -0.09725   0.82211   1.00
H2       0.29243    -0.03070   0.80554   1.00
H2       0.27987    -0.10908   0.79581   1.00
H2       0.43782    -0.09836   0.81810   1.00
H2       0.35292    -0.14196   0.82611   1.00
H2       0.37146    -0.14363   0.80020   1.00
H2       0.37063    -0.10546   0.76285   1.00
H2       0.37407    -0.06312   0.73998   1.00
H2       0.44942    -0.04929   0.75097   1.00
H2       0.29068    -0.05248   0.76506   1.00
H2       0.32376    0.03114    0.77373   1.00
H2       0.33141    0.01632    0.74811   1.00
H2       0.46061    0.24834    0.81792   1.00
H2       0.51586    0.31575    0.83376   1.00
H2       0.53089    0.24802    0.82935   1.00
H2       0.40937    0.29693    0.85094   1.00
H2       0.35366    0.22132    0.83817   1.00
H2       0.35708    0.22340    0.86493   1.00
H2       0.29427    0.00856    0.89039   1.00
H2       0.31718    -0.00330   0.86593   1.00
H2       0.37431    0.01485    0.88638   1.00
H2       0.41417    0.19633    0.89524   1.00
H2       0.35055    0.12265    0.90725   1.00
H2       0.43188    0.13209    0.90333   1.00
H2       0.55397    0.15886    0.83216   1.00
H2       0.57849    0.11495    0.84932   1.00
H2       0.49987    0.07142    0.83685   1.00
H2       0.59524    0.18509    0.87911   1.00
H2       0.58369    0.24212    0.86364   1.00
H2       0.53728    0.21097    0.88648   1.00
C4       0.82977    0.19053    0.78456   1.00
C4       0.85658    0.16446    0.79949   1.00
C3       0.78198    0.14946    0.76949   1.00
C3       0.84311    0.09611    0.79971   1.00
C3       0.85244    0.26177    0.78434   1.00
C3       0.89917    0.20863    0.81519   1.00
C2       0.78057    0.24768    0.75426   1.00
C2       0.91398    0.11604    0.82995   1.00
C3       0.75833    0.17725    0.75469   1.00
C3       0.87048    0.07235    0.81463   1.00
C3       0.82699    0.28861    0.76951   1.00
C3       0.92859    0.18447    0.82956   1.00
H1       0.76278    0.09811    0.76888   1.00
H1       0.81337    0.06168    0.78898   1.00
C5       0.90016    0.30567    0.79898   1.00
C5       0.91273    0.27679    0.81639   1.00
H1       0.72417    0.14513    0.74408   1.00
H1       0.85851    0.02226    0.81413   1.00
H1       0.84227    0.33948    0.76988   1.00
H1       0.96242    0.21787    0.83992   1.00
O3       0.93037    0.37532    0.79671   1.00
O3       0.94212    0.31596    0.83349   1.00
Si1      1.00383    0.41747    0.78519   1.00
Si1      0.89320    0.30962    0.85252   1.00
C6       1.00686    0.49683    0.78410   1.00
C6       1.06645    0.42063    0.80176   1.00
C6       1.00378    0.38619    0.76065   1.00
C6       0.80495    0.25048    0.85065   1.00
C6       0.92795    0.28677    0.87280   1.00
C6       0.90656    0.39193    0.85735   1.00
C6       0.94030    0.49487    0.77649   1.00
H2       1.01138    0.51102    0.80010   1.00
C6       1.06700    0.55963    0.77311   1.00
H2       1.04255    0.41503    0.81654   1.00
C6       1.08433    0.36233    0.80052   1.00
C6       1.13684    0.48819    0.80305   1.00
H2       0.95719    0.38124    0.75410   1.00
C6       1.06311    0.43410    0.74602   1.00
C6       0.99877    0.31477    0.75817   1.00
C6       0.76485    0.25748    0.83238   1.00
C6       0.77891    0.17240    0.85300   1.00
H2       0.78472    0.26248    0.86407   1.00
H2       0.91498    0.23458    0.86927   1.00
C6       1.00753    0.32772    0.87474   1.00
C6       0.89891    0.28481    0.89447   1.00
H2       0.95349    0.41640    0.86625   1.00
C6       0.92143    0.43899    0.83852   1.00
C6       0.85192    0.39839    0.87021   1.00
H2       0.89602    0.45980    0.78550   1.00
H2       0.92974    0.47879    0.76064   1.00
H2       0.94457    0.54500    0.77775   1.00
H2       1.07805    0.60685    0.78081   1.00
H2       1.11387    0.55746    0.77287   1.00
H2       1.05459    0.56461    0.75743   1.00
H2       1.11206    0.36204    0.81407   1.00
H2       1.03892    0.31213    0.79967   1.00
H2       1.11656    0.36899    0.78742   1.00
H2       1.13056    0.53159    0.80691   1.00
H2       1.16901    0.48527    0.81494   1.00
H2       1.16472    0.49868    0.78876   1.00
H2       1.11282    0.45129    0.75301   1.00
H2       1.06161    0.40878    0.73173   1.00
H2       1.05927    0.47835    0.74169   1.00
H2       1.04876    0.31862    0.75867   1.00
H2       0.96767    0.27816    0.76966   1.00
H2       0.97599    0.29243    0.74350   1.00
H2       0.76973    0.23297    0.81878   1.00
H2       0.71044    0.23299    0.83590   1.00
H2       0.78177    0.31050    0.82878   1.00
H2       0.72332    0.14364    0.85436   1.00
H2       0.79212    0.15167    0.84002   1.00
H2       0.79878    0.16121    0.86664   1.00
H2       1.02478    0.30255    0.88543   1.00
H2       1.03212    0.33046    0.86023   1.00
H2       1.02614    0.37965    0.88012   1.00
H2       0.84331    0.25533    0.89470   1.00
H2       0.91700    0.26055    0.90522   1.00
H2       0.91524    0.33609    0.90008   1.00
H2       0.87878    0.41853    0.82792   1.00
H2       0.93304    0.49020    0.84292   1.00
H2       0.96567    0.44439    0.83047   1.00
H2       0.87086    0.45134    0.87475   1.00
H2       0.80486    0.38158    0.86164   1.00
H2       0.83938    0.36852    0.88413   1.00
C4       -0.02667   0.46737    0.38231   1.00
C4       0.02481    0.49410    0.36695   1.00
C3       -0.07097   0.39657    0.38562   1.00
C3       0.03302    0.45300    0.35222   1.00
C3       -0.03550   0.51355    0.39495   1.00
C3       0.07111    0.56583    0.36614   1.00
C2       -0.13173   0.41741    0.41302   1.00
C2       0.12922    0.55219    0.33609   1.00
C3       -0.12231   0.37224    0.40047   1.00
C3       0.08418    0.48113    0.33733   1.00
C3       -0.08677   0.48797    0.41010   1.00
C3       0.12042    0.59344    0.35049   1.00
H1       -0.06708   0.36060    0.37739   1.00
H1       0.00182    0.40147    0.35179   1.00
C5       0.00711    0.58498    0.39244   1.00
C5       0.06765    0.60973    0.38082   1.00
H1       -0.15315   0.32049    0.40207   1.00
H1       0.08808    0.44887    0.32718   1.00
H1       -0.09127   0.52168    0.41942   1.00
H1       0.15031    0.64523    0.34933   1.00
O3       -0.00869   0.62907    0.40223   1.00
O3       0.11962    0.67656    0.38280   1.00
Si1      -0.05412   0.65649    0.39064   1.00
Si1      0.18555    0.69286    0.39677   1.00
C6       -0.06594   0.69768    0.41168   1.00
C6       -0.00149   0.71590    0.37217   1.00
C6       -0.13277   0.59013    0.38149   1.00
C6       0.18861    0.62359    0.40803   1.00
C6       0.25426    0.73520    0.37992   1.00
C6       0.19277    0.75157    0.41551   1.00
C6       -0.08867   0.65554    0.43188   1.00
H2       -0.01420   0.73937    0.41451   1.00
C6       -0.11122   0.73201    0.41001   1.00
H2       0.04929    0.73366    0.37842   1.00
C6       -0.00034   0.68927    0.35036   1.00
C6       -0.00665   0.78161    0.36885   1.00
H2       -0.15242   0.55624    0.39461   1.00
C6       -0.18866   0.60885    0.37587   1.00
C6       -0.13357   0.54519    0.36320   1.00
C6       0.12844    0.57483    0.42221   1.00
C6       0.20536    0.57677    0.39459   1.00
H2       0.23290    0.64935    0.41798   1.00
H2       0.24826    0.69528    0.36944   1.00
C6       0.25361    0.79161    0.36633   1.00
C6       0.32779    0.76685    0.38892   1.00
H2       0.21823    0.80072    0.40774   1.00
C6       0.12463    0.74420    0.42353   1.00
C6       0.23705    0.76000    0.43471   1.00
H2       -0.05340   0.63806    0.43624   1.00
H2       -0.13952   0.61080    0.43043   1.00
H2       -0.08975   0.68639    0.44448   1.00
H2       -0.09077   0.77698    0.41979   1.00
H2       -0.11354   0.74844    0.39468   1.00
H2       -0.16360   0.69809    0.41497   1.00
H2       0.04386    0.72726    0.34184   1.00
H2       0.00363    0.64334    0.35068   1.00
H2       -0.04591   0.67870    0.34183   1.00
H2       0.00204    0.81009    0.38293   1.00
H2       0.03212    0.81655    0.35817   1.00
H2       -0.05643   0.76898    0.36272   1.00
H2       -0.16894   0.65132    0.36517   1.00
H2       -0.23369   0.56585    0.36903   1.00
H2       -0.20746   0.62214    0.38926   1.00
H2       -0.13417   0.56752    0.34858   1.00
H2       -0.09038   0.53699    0.36303   1.00
H2       -0.17940   0.49480    0.36386   1.00
H2       0.08538    0.53611    0.41361   1.00
H2       0.14467    0.54794    0.43257   1.00
H2       0.11038    0.60225    0.43153   1.00
H2       0.21488    0.54278    0.40409   1.00
H2       0.16368    0.54454    0.38444   1.00
H2       0.25126    0.60611    0.38552   1.00
H2       0.29121    0.80654    0.35415   1.00
H2       0.20402    0.77315    0.35909   1.00
H2       0.26557    0.83730    0.37500   1.00
H2       0.33364    0.73021    0.39820   1.00
H2       0.36548    0.78271    0.37672   1.00
H2       0.34070    0.81180    0.39813   1.00
H2       0.09292    0.69538    0.43103   1.00
H2       0.13366    0.78484    0.43418   1.00
H2       0.09558    0.74782    0.41097   1.00
H2       0.24607    0.80465    0.44354   1.00
H2       0.21191    0.71554    0.44465   1.00
H2       0.28699    0.76748    0.43063   1.00
C4       0.49411    1.02686    0.38225   1.00
C4       0.46939    0.97535    0.36690   1.00
C3       0.46971    1.07317    0.38495   1.00
C3       0.42242    0.96902    0.35160   1.00
C3       0.54692    1.03359    0.39553   1.00
C3       0.49239    0.92705    0.36670   1.00
C2       0.54911    1.13179    0.41300   1.00
C2       0.42302    0.87072    0.33611   1.00
C3       0.49668    1.12444    0.39982   1.00
C3       0.39935    0.91777    0.33674   1.00
C3       0.57256    1.08484    0.41068   1.00
C3       0.47078    0.87763    0.35108   1.00
H1       0.43146    1.07085    0.37624   1.00
H1       0.40390    1.00170    0.35073   1.00
C5       0.57357    0.98891    0.39365   1.00
C5       0.53727    0.92862    0.38195   1.00
H1       0.47736    1.15678    0.40097   1.00
H1       0.36492    0.91529    0.32616   1.00
H1       0.60910    1.08784    0.42046   1.00
H1       0.49107    0.84623    0.35039   1.00
O3       0.63174    1.00254    0.40410   1.00
O3       0.54939    0.87498    0.38443   1.00
Si1      0.70613    1.04583    0.39317   1.00
Si1      0.49660    0.80981    0.39816   1.00
C6       0.75619    1.05570    0.41480   1.00
C6       0.71252    0.99183    0.37512   1.00
C6       0.72244    1.12554    0.38370   1.00
C6       0.42453    0.80972    0.40851   1.00
C6       0.46974    0.74080    0.38141   1.00
C6       0.54463    0.80032    0.41759   1.00
C6       0.73600    1.07973    0.43460   1.00
H2       0.74388    1.00334    0.41782   1.00
C6       0.83612    1.09857    0.41387   1.00
H2       0.67743    0.94141    0.38125   1.00
C6       0.68766    0.99180    0.35298   1.00
C6       0.78239    0.99413    0.37267   1.00
H2       0.70793    1.14621    0.39652   1.00
C6       0.79835    1.17945    0.37870   1.00
C6       0.68129    1.12819    0.36486   1.00
C6       0.43670    0.87065    0.42246   1.00
C6       0.36311    0.79527    0.39438   1.00
H2       0.40348    0.76532    0.41849   1.00
H2       0.43794    0.74832    0.37047   1.00
C6       0.52701    0.73906    0.36855   1.00
C6       0.42472    0.66753    0.39031   1.00
H2       0.56755    0.77334    0.41028   1.00
C6       0.60605    0.86731    0.42596   1.00
C6       0.50564    0.75666    0.43659   1.00
H2       0.68247    1.04595    0.43849   1.00
H2       0.74427    1.13134    0.43292   1.00
H2       0.76592    1.07951    0.44759   1.00
H2       0.85818    1.07670    0.42408   1.00
H2       0.85620    1.10014    0.39878   1.00
H2       0.85584    1.15124    0.41875   1.00
H2       0.68064    0.94695    0.34466   1.00
H2       0.63866    0.98982    0.35268   1.00
H2       0.72472    1.03681    0.34462   1.00
H2       0.79987    0.98446    0.38705   1.00
H2       0.77817    0.95473    0.36219   1.00
H2       0.82147    1.04337    0.36672   1.00
H2       0.82091    1.15836    0.36841   1.00
H2       0.80297    1.22530    0.37162   1.00
H2       0.82907    1.19730    0.39238   1.00
H2       0.70529    1.12782    0.35054   1.00
H2       0.62923    1.08627    0.36430   1.00
H2       0.67867    1.17513    0.36519   1.00
H2       0.44369    0.91439    0.41366   1.00
H2       0.39274    0.85591    0.43236   1.00
H2       0.48093    0.88719    0.43225   1.00
H2       0.31916    0.78739    0.40337   1.00
H2       0.37520    0.83739    0.38409   1.00
H2       0.34597    0.74913    0.38537   1.00
H2       0.50457    0.70163    0.35631   1.00
H2       0.56032    0.78834    0.36141   1.00
H2       0.55856    0.72546    0.37772   1.00
H2       0.38193    0.66335    0.39908   1.00
H2       0.40311    0.62998    0.37807   1.00
H2       0.45451    0.65303    0.40000   1.00
H2       0.58985    0.90039    0.43305   1.00
H2       0.63543    0.85679    0.43706   1.00
H2       0.64057    0.89556    0.41366   1.00
H2       0.53915    0.74598    0.44592   1.00
H2       0.48675    0.78313    0.44612   1.00
H2       0.46246    0.70749    0.43228   1.00
C4       0.53276    0.50589    0.38225   1.00
C4       0.50597    0.53061    0.36690   1.00
C3       0.60347    0.53037    0.38498   1.00
C3       0.54663    0.57767    0.35162   1.00
C3       0.48667    0.45300    0.39551   1.00
C3       0.43465    0.50752    0.36668   1.00
C2       0.58268    0.45089    0.41300   1.00
C2       0.44772    0.57698    0.33611   1.00
C3       0.62777    0.50340    0.39984   1.00
C3       0.51845    0.60074    0.33676   1.00
C3       0.51228    0.42736    0.41066   1.00
C3       0.40685    0.52914    0.35106   1.00
H1       0.63941    0.56868    0.37628   1.00
H1       0.59785    0.59626    0.35076   1.00
C5       0.41534    0.42627    0.39360   1.00
C5       0.39132    0.46255    0.38191   1.00
H1       0.67943    0.52278    0.40101   1.00
H1       0.55041    0.63523    0.32619   1.00
H1       0.47873    0.39075    0.42042   1.00
H1       0.35515    0.50879    0.35035   1.00
O3       0.37081    0.36804    0.40403   1.00
O3       0.32551    0.45033    0.38437   1.00
Si1      0.33984    0.29370    0.39307   1.00
Si1      0.31299    0.50300    0.39811   1.00
C6       0.29961    0.24353    0.41469   1.00
C6       0.27948    0.28729    0.37502   1.00
C6       0.40336    0.27754    0.38362   1.00
C6       0.38488    0.57509    0.40850   1.00
C6       0.27083    0.52985    0.38135   1.00
C6       0.25542    0.45485    0.41752   1.00
C6       0.34375    0.26369    0.43450   1.00
H2       0.25950    0.25575    0.41770   1.00
C6       0.26265    0.16360    0.41372   1.00
H2       0.26407    0.32231    0.38115   1.00
C6       0.30438    0.31226    0.35288   1.00
C6       0.21198    0.21738    0.37253   1.00
H2       0.43848    0.29203    0.39645   1.00
C6       0.38147    0.20167    0.37859   1.00
C6       0.44720    0.31880    0.36480   1.00
C6       0.43363    0.56295    0.42245   1.00
C6       0.43183    0.63659    0.39439   1.00
H2       0.36143    0.59604    0.41847   1.00
H2       0.31017    0.56172    0.37043   1.00
C6       0.21191    0.47258    0.36847   1.00
C6       0.24246    0.57476    0.39026   1.00
H2       0.20555    0.43189    0.41019   1.00
C6       0.26106    0.39345    0.42587   1.00
C6       0.25061    0.49372    0.43652   1.00
H2       0.36342    0.31719    0.43841   1.00
H2       0.38715    0.25550    0.43283   1.00
H2       0.31360    0.23370    0.44748   1.00
H2       0.21867    0.14145    0.42392   1.00
H2       0.24421    0.14357    0.39863   1.00
H2       0.29564    0.14393    0.41861   1.00
H2       0.26654    0.31924    0.34455   1.00
H2       0.35136    0.36129    0.35261   1.00
H2       0.31243    0.27527    0.34452   1.00
H2       0.18479    0.19982    0.38690   1.00
H2       0.17681    0.22159    0.36204   1.00
H2       0.22222    0.17837    0.36657   1.00
H2       0.33786    0.17910    0.36829   1.00
H2       0.42276    0.19714    0.37152   1.00
H2       0.36858    0.17090    0.39226   1.00
H2       0.42290    0.29483    0.35046   1.00
H2       0.45727    0.37083    0.36425   1.00
H2       0.49679    0.32148    0.36514   1.00
H2       0.47047    0.55606    0.41366   1.00
H2       0.46277    0.60688    0.43237   1.00
H2       0.40595    0.51867    0.43222   1.00
H2       0.46784    0.68053    0.40340   1.00
H2       0.46195    0.62460    0.38411   1.00
H2       0.40282    0.65371    0.38538   1.00
H2       0.19693    0.49503    0.35623   1.00
H2       0.22798    0.43935    0.36132   1.00
H2       0.16674    0.44095    0.37762   1.00
H2       0.28100    0.61754    0.39905   1.00
H2       0.22652    0.59637    0.37802   1.00
H2       0.19814    0.54488    0.39994   1.00
H2       0.31032    0.40968    0.43298   1.00
H2       0.22113    0.36399    0.43696   1.00
H2       0.25489    0.35900    0.41356   1.00
H2       0.20640    0.46013    0.44584   1.00
H2       0.29595    0.51263    0.44607   1.00
H2       0.24456    0.53687    0.43222   1.00
C4       0.19260    0.35702    0.21658   1.00
C4       0.16578    0.30550    0.20123   1.00
C3       0.15704    0.35373    0.23466   1.00
C3       0.09844    0.24877    0.20157   1.00
C3       0.25817    0.41585    0.21369   1.00
C3       0.20819    0.31026    0.18457   1.00
C2       0.24890    0.46492    0.24640   1.00
C2       0.11482    0.20427    0.16939   1.00
C3       0.18420    0.40634    0.24912   1.00
C3       0.07384    0.19920    0.18618   1.00
C3       0.28522    0.46777    0.22864   1.00
C3       0.18147    0.26135    0.16879   1.00
H1       0.11047    0.31292    0.23790   1.00
H1       0.06514    0.24202    0.21292   1.00
C5       0.29642    0.42230    0.19595   1.00
C5       0.27679    0.36405    0.18362   1.00
H1       0.15593    0.40138    0.26184   1.00
H1       0.02490    0.15897    0.18731   1.00
H1       0.33312    0.50878    0.22663   1.00
H1       0.21104    0.26786    0.15634   1.00
O3       0.35402    0.48359    0.19161   1.00
O3       0.32231    0.36234    0.16999   1.00
Si1      0.34847    0.53881    0.17698   1.00
Si1      0.36198    0.32146    0.17619   1.00
C6       0.43251    0.60666    0.18063   1.00
C6       0.33623    0.50728    0.15197   1.00
C6       0.28791    0.56068    0.18546   1.00
C6       0.34246    0.27867    0.19978   1.00
C6       0.34018    0.26194    0.15648   1.00
C6       0.45007    0.37992    0.17453   1.00
C6       0.45779    0.62184    0.20318   1.00
H2       0.46281    0.58712    0.17346   1.00
C6       0.45725    0.67837    0.17075   1.00
H2       0.35878    0.47454    0.15261   1.00
C6       0.26156    0.46082    0.14423   1.00
C6       0.37389    0.55869    0.13428   1.00
H2       0.30038    0.57075    0.20157   1.00
C6       0.29288    0.62717    0.17655   1.00
C6       0.20980    0.50643    0.18427   1.00
C6       0.35195    0.32128    0.21941   1.00
C6       0.27350    0.21012    0.20243   1.00
H2       0.38084    0.26308    0.20082   1.00
H2       0.28622    0.22593    0.15905   1.00
C6       0.34450    0.28976    0.13446   1.00
C6       0.37684    0.21896    0.15599   1.00
H2       0.46130    0.38147    0.15837   1.00
C6       0.47338    0.45519    0.18034   1.00
C6       0.50019    0.36183    0.18560   1.00
H2       0.45279    0.57652    0.21065   1.00
H2       0.42882    0.63971    0.21196   1.00
H2       0.51170    0.66085    0.20400   1.00
H2       0.51127    0.70220    0.16678   1.00
H2       0.42955    0.67565    0.15699   1.00
H2       0.45248    0.71343    0.18109   1.00
H2       0.26097    0.43335    0.13051   1.00
H2       0.23001    0.42218    0.15530   1.00
H2       0.23752    0.49090    0.14050   1.00
H2       0.42888    0.58735    0.13677   1.00
H2       0.36627    0.53215    0.11981   1.00
H2       0.35511    0.59442    0.13252   1.00
H2       0.29261    0.62633    0.15999   1.00
H2       0.25063    0.63406    0.18156   1.00
H2       0.33870    0.67241    0.18174   1.00
H2       0.18780    0.50717    0.16960   1.00
H2       0.19871    0.45461    0.18678   1.00
H2       0.18178    0.51718    0.19583   1.00
H2       0.30791    0.32731    0.22231   1.00
H2       0.35804    0.29574    0.23266   1.00
H2       0.39703    0.37177    0.21867   1.00
H2       0.27322    0.18527    0.21669   1.00
H2       0.22980    0.21783    0.20282   1.00
H2       0.26527    0.17367    0.19042   1.00
H2       0.31923    0.24753    0.12371   1.00
H2       0.31876    0.31957    0.13335   1.00
H2       0.39713    0.32179    0.12947   1.00
H2       0.37458    0.19571    0.17068   1.00
H2       0.35217    0.17734    0.14502   1.00
H2       0.43024    0.25006    0.15154   1.00
H2       0.46241    0.46015    0.19615   1.00
H2       0.52793    0.48874    0.17776   1.00
H2       0.44697    0.47404    0.17095   1.00
H2       0.55285    0.39634    0.18091   1.00
H2       0.49775    0.36599    0.20206   1.00
H2       0.48916    0.31030    0.18202   1.00
C4       0.63561    0.83282    0.21432   1.00
C4       0.68849    0.85963    0.19939   1.00
C3       0.57292    0.83215    0.21207   1.00
C3       0.68657    0.89398    0.18159   1.00
C3       0.64585    0.80599    0.23274   1.00
C3       0.74674    0.85186    0.20219   1.00
C2       0.53263    0.78079    0.24566   1.00
C2       0.79818    0.91376    0.17013   1.00
C3       0.52298    0.80722    0.22735   1.00
C3       0.73959    0.91975    0.16727   1.00
C3       0.59432    0.77990    0.24780   1.00
C3       0.80092    0.88076    0.18801   1.00
H1       0.56160    0.84954    0.19924   1.00
H1       0.64680    0.90166    0.17858   1.00
C5       0.70738    0.80511    0.23595   1.00
C5       0.75098    0.81588    0.21920   1.00
H1       0.47885    0.80849    0.22493   1.00
H1       0.73516    0.94361    0.15460   1.00
H1       0.60159    0.75908    0.26069   1.00
H1       0.84415    0.87857    0.19090   1.00
O3       0.72186    0.78995    0.25490   1.00
O3       0.79962    0.79610    0.22017   1.00
Si1      0.76737    0.85144    0.27081   1.00
Si1      0.78367    0.72476    0.20938   1.00
C6       0.75630    0.79955    0.29208   1.00
C6       0.85241    0.89255    0.26215   1.00
C6       0.73389    0.90588    0.27532   1.00
C6       0.70581    0.67756    0.19616   1.00
C6       0.85196    0.75051    0.19240   1.00
C6       0.79120    0.67374    0.22821   1.00
C6       0.68130    0.74174    0.29647   1.00
H2       0.78336    0.77314    0.28745   1.00
C6       0.78676    0.83181    0.31331   1.00
H2       0.85357    0.85226    0.25338   1.00
C6       0.87652    0.95425    0.24729   1.00
C6       0.91106    0.91594    0.27812   1.00
H2       0.68003    0.86958    0.27810   1.00
C6       0.76018    0.95268    0.29456   1.00
C6       0.73629    0.95475    0.25800   1.00
C6       0.63800    0.65487    0.20803   1.00
C6       0.69673    0.70296    0.17491   1.00
H2       0.70560    0.63035    0.19265   1.00
H2       0.84216    0.77881    0.18077   1.00
C6       0.92448    0.80156    0.20095   1.00
C6       0.85839    0.69327    0.18110   1.00
H2       0.84603    0.69343    0.22932   1.00
C6       0.76873    0.68043    0.25004   1.00
C6       0.75821    0.59543    0.22404   1.00
H2       0.65858    0.70882    0.28329   1.00
H2       0.64900    0.76302    0.30063   1.00
H2       0.67957    0.70885    0.30887   1.00
H2       0.80199    0.79959    0.32152   1.00
H2       0.83137    0.88240    0.31219   1.00
H2       0.74969    0.83597    0.32291   1.00
H2       0.92413    0.96549    0.23980   1.00
H2       0.83969    0.94387    0.23526   1.00
H2       0.88577    1.00023    0.25534   1.00
H2       0.90439    0.87346    0.28757   1.00
H2       0.96071    0.93585    0.27074   1.00
H2       0.91370    0.95623    0.28786   1.00
H2       0.81579    0.98295    0.29472   1.00
H2       0.74038    0.98791    0.29536   1.00
H2       0.74293    0.92288    0.30843   1.00
H2       0.78410    1.00334    0.25803   1.00
H2       0.73023    0.93338    0.24294   1.00
H2       0.69514    0.96623    0.26008   1.00
H2       0.62522    0.69526    0.20859   1.00
H2       0.59543    0.61112    0.20060   1.00
H2       0.64031    0.63947    0.22352   1.00
H2       0.65032    0.66385    0.16749   1.00
H2       0.69227    0.74850    0.17601   1.00
H2       0.73867    0.71367    0.16464   1.00
H2       0.96149    0.82336    0.18858   1.00
H2       0.92486    0.84423    0.20881   1.00
H2       0.94259    0.77690    0.21148   1.00
H2       0.81033    0.65613    0.17408   1.00
H2       0.89616    0.71522    0.16893   1.00
H2       0.87478    0.66637    0.19137   1.00
H2       0.71470    0.66458    0.25080   1.00
H2       0.77874    0.65028    0.26099   1.00
H2       0.79749    0.73316    0.25498   1.00
H2       0.77515    0.57150    0.23526   1.00
H2       0.70259    0.56974    0.22476   1.00
H2       0.77260    0.58538    0.20921   1.00
C4       0.16612    0.80188    0.21436   1.00
C4       0.13944    0.82819    0.19946   1.00
C3       0.15519    0.73444    0.21397   1.00
C3       0.09415    0.78796    0.18378   1.00
C3       0.20511    0.84460    0.23081   1.00
C3       0.15886    0.89862    0.20008   1.00
C2       0.21895    0.75143    0.24561   1.00
C2       0.08650    0.88485    0.17018   1.00
C3       0.18052    0.70974    0.22922   1.00
C3       0.06890    0.81561    0.16942   1.00
C3       0.23131    0.81913    0.24584   1.00
C3       0.13055    0.92481    0.18600   1.00
H1       0.12871    0.70136    0.20256   1.00
H1       0.07785    0.73729    0.18239   1.00
C5       0.21794    0.91258    0.23210   1.00
C5       0.20591    0.94246    0.21483   1.00
H1       0.17058    0.66036    0.22822   1.00
H1       0.03677    0.78422    0.15831   1.00
H1       0.26078    0.85096    0.25724   1.00
H1       0.14153    0.97424    0.18744   1.00
O3       0.24549    0.94969    0.24958   1.00
O3       0.23560    1.01249    0.21328   1.00
Si1      0.19531    0.95055    0.26722   1.00
Si1      0.30366    1.05420    0.19929   1.00
C6       0.25872    0.99398    0.28579   1.00
C6       0.16183    1.00126    0.25833   1.00
C6       0.13391    0.86828    0.27558   1.00
C6       0.33447    1.00719    0.18604   1.00
C6       0.27975    1.09707    0.18186   1.00
C6       0.36813    1.11571    0.21495   1.00
C6       0.30963    0.96702    0.28929   1.00
H2       0.28917    1.04441    0.27900   1.00
C6       0.23960    1.00700    0.30758   1.00
H2       0.20072    1.03455    0.24748   1.00
C6       0.09323    0.96582    0.24622   1.00
C6       0.15441    1.05007    0.27360   1.00
H2       0.16475    0.84412    0.27800   1.00
C6       0.09769    0.86307    0.29630   1.00
C6       0.07413    0.81996    0.26101   1.00
C6       0.35279    0.95992    0.19858   1.00
C6       0.29585    0.96576    0.16667   1.00
H2       0.38298    1.04743    0.18006   1.00
H2       0.24248    1.05643    0.17217   1.00
C6       0.24174    1.13295    0.19086   1.00
C6       0.33636    1.14998    0.16745   1.00
H2       0.35696    1.15733    0.21546   1.00
C6       0.36757    1.09509    0.23754   1.00
C6       0.44386    1.14823    0.20763   1.00
H2       0.33455    0.96631    0.27518   1.00
H2       0.28352    0.91533    0.29549   1.00
H2       0.35019    0.99973    0.29983   1.00
H2       0.28033    1.05546    0.31351   1.00
H2       0.19280    1.00928    0.30784   1.00
H2       0.23348    0.96777    0.31839   1.00
H2       0.08576    1.00354    0.23800   1.00
H2       0.09236    0.93048    0.23488   1.00
H2       0.04971    0.93830    0.25635   1.00
H2       0.20295    1.08476    0.28086   1.00
H2       0.13812    1.08232    0.26589   1.00
H2       0.11663    1.02126    0.28529   1.00
H2       0.07495    0.89572    0.29641   1.00
H2       0.05726    0.81091    0.29956   1.00
H2       0.13305    0.87707    0.30892   1.00
H2       0.03053    0.82793    0.26220   1.00
H2       0.08869    0.82599    0.24517   1.00
H2       0.05597    0.76663    0.26491   1.00
H2       0.30795    0.91059    0.20166   1.00
H2       0.38862    0.95007    0.19017   1.00
H2       0.37689    0.98273    0.21298   1.00
H2       0.32610    0.94769    0.15865   1.00
H2       0.24719    0.92098    0.17033   1.00
H2       0.28666    0.99669    0.15585   1.00
H2       0.21894    1.14785    0.17871   1.00
H2       0.20015    1.09880    0.20090   1.00
H2       0.27601    1.17876    0.19941   1.00
H2       0.36442    1.12857    0.15997   1.00
H2       0.31361    1.16564    0.15547   1.00
H2       0.37259    1.19584    0.17567   1.00
H2       0.37568    1.05172    0.23905   1.00
H2       0.40651    1.13732    0.24644   1.00
H2       0.31868    1.08111    0.24437   1.00
H2       0.47749    1.19245    0.21694   1.00
H2       0.46215    1.11189    0.20863   1.00
H2       0.44994    1.16618    0.19202   1.00
C4       1.02399    0.52482    0.61685   1.00
C4       0.97259    0.49834    0.63224   1.00
C3       1.02996    0.48395    0.60156   1.00
C3       0.92603    0.42769    0.63498   1.00
C3       1.07308    0.59591    0.61679   1.00
C3       0.96678    0.54455    0.64570   1.00
C2       1.13142    0.58167    0.58689   1.00
C2       0.87109    0.44873    0.66400   1.00
C3       1.08240    0.51147    0.58706   1.00
C3       0.87625    0.40357    0.65030   1.00
C3       1.12483    0.62290    0.60180   1.00
C3       0.91818    0.51902    0.66158   1.00
H1       0.99624    0.43303    0.60047   1.00
H1       0.92717    0.39165    0.62602   1.00
C5       1.06999    0.63962    0.63165   1.00
C5       1.00979    0.61589    0.64338   1.00
H1       1.08444    0.47934    0.57646   1.00
H1       0.84356    0.35198    0.65146   1.00
H1       1.15854    0.67430    0.60160   1.00
H1       0.91755    0.55247    0.67187   1.00
O3       1.12349    0.70538    0.63365   1.00
O3       0.99640    0.66146    0.65346   1.00
Si1      1.18411    0.72221    0.64999   1.00
Si1      0.94298    0.68157    0.64339   1.00
C6       1.23931    0.80739    0.64250   1.00
C6       1.15051    0.71824    0.67439   1.00
C6       1.22264    0.67169    0.64660   1.00
C6       0.90242    0.64163    0.62042   1.00
C6       0.88134    0.65983    0.66245   1.00
C6       0.98657    0.77088    0.64053   1.00
C6       1.25183    0.81978    0.61910   1.00
H2       1.21040    0.83221    0.64680   1.00
C6       1.31137    0.85107    0.65254   1.00
H2       1.10952    0.72898    0.67121   1.00
C6       1.11625    0.64839    0.68586   1.00
C6       1.19677    0.77227    0.69057   1.00
H2       1.23202    0.67564    0.63026   1.00
C6       1.29362    0.69691    0.65693   1.00
C6       1.18115    0.59342    0.65167   1.00
C6       0.94838    0.64895    0.60180   1.00
C6       0.84346    0.56546    0.62066   1.00
H2       0.87659    0.66964    0.61624   1.00
H2       0.85454    0.60422    0.66269   1.00
C6       0.90912    0.68248    0.68452   1.00
C6       0.82581    0.68064    0.65908   1.00
H2       0.98445    0.78973    0.65560   1.00
C6       1.06404    0.80545    0.63543   1.00
C6       0.95606    0.80258    0.62564   1.00
H2       1.20392    0.80045    0.61080   1.00
H2       1.27873    0.79477    0.61308   1.00
H2       1.28218    0.87419    0.61565   1.00
H2       1.32472    0.90457    0.65332   1.00
H2       1.31372    0.83474    0.66787   1.00
H2       1.35164    0.84973    0.64379   1.00
H2       1.08527    0.64892    0.69851   1.00
H2       1.08205    0.60629    0.67610   1.00
H2       1.15444    0.63747    0.69208   1.00
H2       1.21567    0.82415    0.68510   1.00
H2       1.16837    0.76751    0.70448   1.00
H2       1.24008    0.76603    0.69467   1.00
H2       1.29149    0.70571    0.67313   1.00
H2       1.31127    0.66015    0.65521   1.00
H2       1.33299    0.74355    0.64996   1.00
H2       1.18592    0.58323    0.66759   1.00
H2       1.12716    0.57016    0.64846   1.00
H2       1.20025    0.56594    0.64265   1.00
H2       0.96535    0.61166    0.60224   1.00
H2       0.92002    0.64052    0.58765   1.00
H2       0.99322    0.69956    0.60084   1.00
H2       0.81741    0.55127    0.60600   1.00
H2       0.86199    0.53027    0.62359   1.00
H2       0.80454    0.55644    0.63192   1.00
H2       0.86790    0.65698    0.69558   1.00
H2       0.94761    0.66859    0.68830   1.00
H2       0.93169    0.73737    0.68664   1.00
H2       0.80199    0.66493    0.64418   1.00
H2       0.78509    0.65593    0.67033   1.00
H2       0.84722    0.73565    0.66059   1.00
H2       1.07321    0.78858    0.62088   1.00
H2       1.08802    0.86097    0.63510   1.00
H2       1.09005    0.79297    0.64704   1.00
H2       0.98136    0.85792    0.62753   1.00
H2       0.96243    0.79235    0.60983   1.00
H2       0.90192    0.78285    0.62840   1.00
C4       0.50108    -0.02391   0.61683   1.00
C4       0.52595    0.02750    0.63221   1.00
C3       0.45667    -0.02807   0.60099   1.00
C3       0.50407    0.07602    0.63436   1.00
C3       0.52053    -0.07491   0.61735   1.00
C3       0.57562    0.03128    0.64629   1.00
C2       0.45032    -0.13144   0.58689   1.00
C2       0.57755    0.12893    0.66400   1.00
C3       0.43166    -0.08054   0.58650   1.00
C3       0.52961    0.12575    0.64970   1.00
C3       0.49576    -0.12669   0.60236   1.00
C3       0.59851    0.07992    0.66215   1.00
H1       0.44139    0.00705    0.59948   1.00
H1       0.46863    0.07639    0.62493   1.00
C5       0.56482    -0.07369   0.63278   1.00
C5       0.60175    -0.01379   0.64460   1.00
H1       0.39930    -0.08121   0.57548   1.00
H1       0.51237    0.15989    0.65041   1.00
H1       0.51165    -0.16182   0.60260   1.00
H1       0.63075    0.07914    0.67287   1.00
O3       0.57434    -0.12879   0.63525   1.00
O3       0.65888    -0.00258   0.65534   1.00
Si1      0.52722    -0.18878   0.65139   1.00
Si1      0.73412    0.04884    0.64589   1.00
C6       0.55502    -0.24636   0.64463   1.00
C6       0.55498    -0.15571   0.67595   1.00
C6       0.43889    -0.22438   0.64710   1.00
C6       0.73889    0.09016    0.62269   1.00
C6       0.77367    0.11008    0.66507   1.00
C6       0.77728    0.00246    0.64388   1.00
C6       0.55687    -0.25916   0.62132   1.00
H2       0.60830    -0.21911   0.64943   1.00
C6       0.52315    -0.31868   0.65474   1.00
H2       0.60764    -0.11606   0.67318   1.00
C6       0.52039    -0.11926   0.68675   1.00
C6       0.55889    -0.20322   0.69250   1.00
H2       0.43495    -0.23374   0.63076   1.00
C6       0.39005    -0.29487   0.65728   1.00
C6       0.40412    -0.18051   0.65145   1.00
C6       0.70119    0.04487    0.60387   1.00
C6       0.72453    0.15104    0.62236   1.00
H2       0.79307    0.11426    0.61904   1.00
H2       0.74660    0.13862    0.66477   1.00
C6       0.76511    0.08198    0.68723   1.00
C6       0.85101    0.16354    0.66234   1.00
H2       0.79627    0.00376    0.65919   1.00
C6       0.73262    -0.07480   0.63871   1.00
C6       0.84100    0.03097    0.62960   1.00
H2       0.58773    -0.21149   0.61310   1.00
H2       0.50563    -0.28445   0.61480   1.00
H2       0.57949    -0.29113   0.61837   1.00
H2       0.56177    -0.33398   0.65611   1.00
H2       0.50313    -0.32029   0.66983   1.00
H2       0.48171    -0.35805   0.64571   1.00
H2       0.55114    -0.08895   0.69960   1.00
H2       0.51515    -0.08406   0.67669   1.00
H2       0.47010    -0.15616   0.69258   1.00
H2       0.59093    -0.22388   0.68757   1.00
H2       0.58171    -0.17521   0.70653   1.00
H2       0.50818    -0.24533   0.69623   1.00
H2       0.39908    -0.29314   0.67359   1.00
H2       0.33629    -0.31061   0.65497   1.00
H2       0.39625    -0.33535   0.65065   1.00
H2       0.38759    -0.18473   0.66720   1.00
H2       0.43679    -0.12672   0.64831   1.00
H2       0.35875    -0.19806   0.64196   1.00
H2       0.64736    0.02982    0.60373   1.00
H2       0.72338    0.07295    0.58982   1.00
H2       0.70503    -0.00112   0.60326   1.00
H2       0.73880    0.17710    0.60769   1.00
H2       0.67089    0.13438    0.62471   1.00
H2       0.75419    0.18951    0.63375   1.00
H2       0.78103    0.12339    0.69822   1.00
H2       0.71187    0.04490    0.69057   1.00
H2       0.79553    0.05760    0.68990   1.00
H2       0.86154    0.18749    0.64741   1.00
H2       0.86717    0.20443    0.67354   1.00
H2       0.88281    0.14030    0.66441   1.00
H2       0.70834    -0.08308   0.62389   1.00
H2       0.76249    -0.10058   0.63892   1.00
H2       0.69266    -0.09971   0.64997   1.00
H2       0.86910    0.00390    0.63203   1.00
H2       0.82620    0.02514    0.61363   1.00
H2       0.87663    0.08477    0.63247   1.00
C4       0.47501    0.49893    0.61683   1.00
C4       0.50155    0.47406    0.63221   1.00
C3       0.51528    0.54343    0.60101   1.00
C3       0.57196    0.49602    0.63438   1.00
C3       0.40453    0.47939    0.61733   1.00
C3       0.45564    0.42430    0.64627   1.00
C2       0.41823    0.54968    0.58689   1.00
C2       0.55137    0.42245    0.66400   1.00
C3       0.48782    0.56843    0.58652   1.00
C3       0.59615    0.47048    0.64972   1.00
C3       0.37752    0.50415    0.60234   1.00
C3       0.48138    0.40140    0.66213   1.00
H1       0.56571    0.55878    0.59951   1.00
H1       0.60778    0.53153    0.62497   1.00
C5       0.36143    0.43500    0.63274   1.00
C5       0.38442    0.39808    0.64455   1.00
H1       0.51952    0.60086    0.57551   1.00
H1       0.64753    0.48778    0.65045   1.00
H1       0.32648    0.48820    0.60256   1.00
H1       0.44835    0.36910    0.67284   1.00
O3       0.29677    0.42538    0.63519   1.00
O3       0.33852    0.34089    0.65527   1.00
Si1      0.28375    0.47238    0.65134   1.00
Si1      0.31484    0.26571    0.64580   1.00
C6       0.19838    0.44450    0.64455   1.00
C6       0.28901    0.44455    0.67590   1.00
C6       0.33640    0.56074    0.64709   1.00
C6       0.35152    0.26109    0.62261   1.00
C6       0.33653    0.22614    0.66498   1.00
C6       0.22529    0.22245    0.64376   1.00
C6       0.18381    0.44271    0.62124   1.00
H2       0.17239    0.39120    0.64934   1.00
C6       0.15781    0.47624    0.65466   1.00
H2       0.27609    0.39193    0.67311   1.00
C6       0.36001    0.47918    0.68672   1.00
C6       0.23750    0.44050    0.69243   1.00
H2       0.33104    0.56474    0.63075   1.00
C6       0.31463    0.60947    0.65727   1.00
C6       0.41503    0.59559    0.65146   1.00
C6       0.34394    0.29883    0.60379   1.00
C6       0.42679    0.27556    0.62230   1.00
H2       0.32151    0.20692    0.61894   1.00
H2       0.39214    0.25328    0.66470   1.00
C6       0.31687    0.23458    0.68713   1.00
C6       0.31276    0.14884    0.66222   1.00
H2       0.20757    0.20339    0.65906   1.00
C6       0.19263    0.26705    0.63859   1.00
C6       0.19022    0.15878    0.62946   1.00
H2       0.20072    0.41195    0.61302   1.00
H2       0.20973    0.49399    0.61474   1.00
H2       0.12922    0.42004    0.61827   1.00
H2       0.10391    0.43757    0.65601   1.00
H2       0.17615    0.49621    0.66977   1.00
H2       0.15986    0.51769    0.64564   1.00
H2       0.35956    0.44840    0.69957   1.00
H2       0.40052    0.48452    0.67667   1.00
H2       0.37331    0.52943    0.69256   1.00
H2       0.18482    0.40843    0.68748   1.00
H2       0.24267    0.41765    0.70646   1.00
H2       0.24601    0.49117    0.69617   1.00
H2       0.30727    0.60037    0.67358   1.00
H2       0.35260    0.66326    0.65499   1.00
H2       0.26794    0.60323    0.65063   1.00
H2       0.42727    0.61206    0.66722   1.00
H2       0.43624    0.56299    0.64831   1.00
H2       0.44285    0.64101    0.64199   1.00
H2       0.38266    0.35267    0.60367   1.00
H2       0.34992    0.27672    0.58973   1.00
H2       0.29407    0.29491    0.60317   1.00
H2       0.43867    0.26137    0.60763   1.00
H2       0.46370    0.32920    0.62467   1.00
H2       0.43561    0.24589    0.63368   1.00
H2       0.34236    0.21866    0.69813   1.00
H2       0.33295    0.28779    0.69049   1.00
H2       0.26207    0.20409    0.68978   1.00
H2       0.32626    0.13839    0.64729   1.00
H2       0.33749    0.13269    0.67342   1.00
H2       0.25772    0.11697    0.66427   1.00
H2       0.20866    0.29139    0.62378   1.00
H2       0.13698    0.23711    0.63878   1.00
H2       0.20759    0.30696    0.64987   1.00
H2       0.13504    0.13061    0.63187   1.00
H2       0.19924    0.17365    0.61349   1.00
H2       0.20845    0.12320    0.63232   1.00
C4       0.47266    -0.03041   0.11881   1.00
C4       0.49980    0.02268    0.13368   1.00
C3       0.49810    -0.07558   0.11548   1.00
C3       0.55889    0.03986    0.14539   1.00
C3       0.41765    -0.03861   0.10628   1.00
C3       0.46638    0.06102    0.13722   1.00
C2       0.41720    -0.13430   0.08776   1.00
C2       0.55240    0.13179    0.16313   1.00
C3       0.47144    -0.12585   0.10031   1.00
C3       0.58413    0.09248    0.15984   1.00
C3       0.39061    -0.09047   0.09132   1.00
C3       0.49432    0.11573    0.15123   1.00
H1       0.53661    -0.07343   0.12402   1.00
H1       0.58558    0.01495    0.14367   1.00
C5       0.38982    0.00484    0.10883   1.00
C5       0.40568    0.04504    0.12665   1.00
H1       0.49223    -0.15672   0.09851   1.00
H1       0.62671    0.10225    0.16799   1.00
H1       0.34992    -0.09697   0.08282   1.00
H1       0.47231    0.14545    0.15265   1.00
O3       0.34492    0.00439    0.09464   1.00
O3       0.36541    0.07191    0.13262   1.00
Si1      0.37333    0.05879    0.07589   1.00
Si1      0.30922    0.03361    0.15054   1.00
C6       0.29621    0.02410    0.06215   1.00
C6       0.39585    0.13954    0.08591   1.00
C6       0.43785    0.05585    0.06165   1.00
C6       0.30464    -0.03903   0.16209   1.00
C6       0.33202    0.09794    0.16877   1.00
C6       0.22910    0.01336    0.14056   1.00
C6       0.25756    -0.05520   0.05912   1.00
H2       0.26391    0.03397    0.07225   1.00
C6       0.29273    0.05422    0.04102   1.00
H2       0.36363    0.12594    0.09938   1.00
C6       0.47055    0.18615    0.09361   1.00
C6       0.37898    0.18775    0.07327   1.00
H2       0.41606    0.00114    0.05914   1.00
C6       0.45376    0.08943    0.04008   1.00
C6       0.51010    0.08203    0.07139   1.00
C6       0.29122    -0.10049   0.14820   1.00
C6       0.36121    -0.02987   0.17753   1.00
H2       0.25910    -0.05777   0.17151   1.00
H2       0.38002    0.10539    0.17491   1.00
C6       0.34843    0.16945    0.16055   1.00
C6       0.28302    0.08180    0.18727   1.00
H2       0.22812    0.06095    0.14175   1.00
C6       0.21755    -0.00559   0.11760   1.00
C6       0.16369    -0.04181   0.15180   1.00
H2       0.24751    -0.08198   0.07360   1.00
H2       0.28699    -0.07088   0.04967   1.00
H2       0.20805    -0.07309   0.05187   1.00
H2       0.24279    0.04994    0.03903   1.00
H2       0.33102    0.10770    0.03932   1.00
H2       0.29907    0.02668    0.02838   1.00
H2       0.47397    0.22715    0.10320   1.00
H2       0.48819    0.15815    0.10283   1.00
H2       0.50580    0.20982    0.08097   1.00
H2       0.32481    0.16305    0.06957   1.00
H2       0.39067    0.23378    0.08180   1.00
H2       0.40858    0.20386    0.05924   1.00
H2       0.46487    0.14219    0.04083   1.00
H2       0.49744    0.08940    0.03299   1.00
H2       0.41149    0.06120    0.02971   1.00
H2       0.54367    0.13672    0.06917   1.00
H2       0.50840    0.07256    0.08754   1.00
H2       0.53502    0.05641    0.06436   1.00
H2       0.33804    -0.09324   0.14126   1.00
H2       0.26999    -0.14755   0.15706   1.00
H2       0.25490    -0.10900   0.13616   1.00
H2       0.34630    -0.07780   0.18543   1.00
H2       0.40971    -0.01460   0.17014   1.00
H2       0.36963    0.00750    0.18926   1.00
H2       0.37300    0.20834    0.17232   1.00
H2       0.38371    0.18537    0.14773   1.00
H2       0.30255    0.16980    0.15568   1.00
H2       0.27032    0.03339    0.19440   1.00
H2       0.30724    0.12126    0.19890   1.00
H2       0.23574    0.08005    0.18278   1.00
H2       0.21997    -0.05148   0.11425   1.00
H2       0.16835    -0.01347   0.11236   1.00
H2       0.25652    0.03579    0.10865   1.00
H2       0.11816    -0.04218   0.14609   1.00
H2       0.15633    -0.09291   0.14963   1.00
H2       0.16605    -0.03185   0.16804   1.00
C4       1.02741    0.49435    0.11792   1.00
C4       0.97582    0.46971    0.13324   1.00
C3       1.07919    0.47652    0.11688   1.00
C3       0.97451    0.42990    0.15006   1.00
C3       1.02841    0.54024    0.10290   1.00
C3       0.92214    0.48525    0.13182   1.00
C2       1.13195    0.54901    0.08705   1.00
C2       0.87056    0.42312    0.16384   1.00
C3       1.13026    0.50337    0.10194   1.00
C3       0.92300    0.40669    0.16484   1.00
C3       1.07961    0.56576    0.08773   1.00
C3       0.87237    0.46383    0.14733   1.00
H1       1.08118    0.44332    0.12689   1.00
H1       1.01117    0.41695    0.15214   1.00
C5       0.97808    0.56011    0.10307   1.00
C5       0.91867    0.52254    0.11504   1.00
H1       1.16668    0.48902    0.10203   1.00
H1       0.92433    0.37758    0.17658   1.00
H1       1.07857    0.59714    0.07673   1.00
H1       0.83683    0.47905    0.14676   1.00
O3       0.98567    0.61268    0.09078   1.00
O3       0.86071    0.52651    0.11126   1.00
Si1      1.02226    0.69039    0.09965   1.00
Si1      0.79852    0.46535    0.09846   1.00
C6       1.02702    0.73160    0.07647   1.00
C6       0.96428    0.69517    0.11647   1.00
C6       1.10421    0.71814    0.10977   1.00
C6       0.80719    0.39525    0.09080   1.00
C6       0.72870    0.43700    0.11498   1.00
C6       0.78308    0.50297    0.07724   1.00
C6       1.05507    0.70981    0.05791   1.00
H2       0.97334    0.71286    0.07307   1.00
C6       1.06266    0.81140    0.07519   1.00
H2       0.91541    0.65456    0.11084   1.00
C6       0.96687    0.67874    0.13940   1.00
C6       0.95832    0.76112    0.11641   1.00
H2       1.12792    0.70333    0.09789   1.00
C6       1.15190    0.79678    0.11286   1.00
C6       1.11162    0.68591    0.13004   1.00
C6       0.87019    0.40980    0.07748   1.00
C6       0.79907    0.34067    0.10686   1.00
H2       0.76304    0.36726    0.08092   1.00
H2       0.74025    0.41168    0.12714   1.00
C6       0.71982    0.49388    0.12564   1.00
C6       0.65697    0.38353    0.10657   1.00
H2       0.75178    0.52317    0.08324   1.00
C6       0.84650    0.56570    0.06777   1.00
C6       0.74199    0.45568    0.05906   1.00
H2       1.02592    0.65476    0.05544   1.00
H2       1.10848    0.72431    0.06013   1.00
H2       1.05148    0.73367    0.04390   1.00
H2       1.03712    0.82614    0.06387   1.00
H2       1.06168    0.83479    0.08948   1.00
H2       1.11592    0.83468    0.07048   1.00
H2       0.92029    0.66925    0.14720   1.00
H2       0.97063    0.63306    0.14145   1.00
H2       1.00978    0.72120    0.14709   1.00
H2       0.94626    0.77184    0.10131   1.00
H2       0.91712    0.75554    0.12634   1.00
H2       1.00547    0.80525    0.12170   1.00
H2       1.12681    0.81826    0.12191   1.00
H2       1.19958    0.80881    0.12047   1.00
H2       1.16727    0.82339    0.09842   1.00
H2       1.10814    0.71248    0.14340   1.00
H2       1.07363    0.63258    0.13181   1.00
H2       1.16143    0.68912    0.13058   1.00
H2       0.91534    0.42429    0.08669   1.00
H2       0.86006    0.36417    0.06900   1.00
H2       0.88250    0.44997    0.06641   1.00
H2       0.79615    0.29615    0.09938   1.00
H2       0.84187    0.36015    0.11733   1.00
H2       0.75232    0.32181    0.11568   1.00
H2       0.68285    0.47215    0.13802   1.00
H2       0.76770    0.53301    0.13234   1.00
H2       0.70186    0.51878    0.11516   1.00
H2       0.65781    0.34061    0.09934   1.00
H2       0.61977    0.36256    0.11891   1.00
H2       0.63828    0.40653    0.09561   1.00
H2       0.88342    0.55256    0.06185   1.00
H2       0.83207    0.58837    0.05549   1.00
H2       0.87197    0.60494    0.07921   1.00
H2       0.72688    0.48270    0.04838   1.00
H2       0.77231    0.43848    0.05070   1.00
H2       0.69524    0.41084    0.06412   1.00
C4       0.50590    0.53275    0.11774   1.00
C4       0.53062    0.50597    0.13309   1.00
C3       0.53054    0.60347    0.11497   1.00
C3       0.57786    0.54667    0.14833   1.00
C3       0.45284    0.48665    0.10453   1.00
C3       0.50734    0.43461    0.13336   1.00
C2       0.45088    0.58267    0.08700   1.00
C2       0.57699    0.44773    0.16389   1.00
C3       0.50356    0.62778    0.10011   1.00
C3       0.60091    0.51848    0.16320   1.00
C3       0.42720    0.51225    0.08938   1.00
C3       0.52897    0.40682    0.14899   1.00
H1       0.56897    0.63942    0.12363   1.00
H1       0.59658    0.59791    0.14916   1.00
C5       0.42595    0.41530    0.10648   1.00
C5       0.46219    0.39123    0.11817   1.00
H1       0.52306    0.67945    0.09891   1.00
H1       0.63554    0.55047    0.17373   1.00
H1       0.39046    0.47869    0.07965   1.00
H1       0.50850    0.35511    0.14973   1.00
O3       0.36758    0.37080    0.09610   1.00
O3       0.44976    0.32534    0.11575   1.00
Si1      0.29335    0.34010    0.10711   1.00
Si1      0.50221    0.31253    0.10198   1.00
C6       0.24296    0.29979    0.08554   1.00
C6       0.28692    0.27982    0.12520   1.00
C6       0.27749    0.40384    0.11654   1.00
C6       0.57433    0.38422    0.09153   1.00
C6       0.52902    0.27035    0.11875   1.00
C6       0.45380    0.25487    0.08263   1.00
C6       0.26307    0.34379    0.06569   1.00
H2       0.25502    0.25956    0.08254   1.00
C6       0.16305    0.26303    0.08656   1.00
H2       0.32178    0.26422    0.11906   1.00
C6       0.31209    0.30484    0.14731   1.00
C6       0.21692    0.21244    0.12775   1.00
H2       0.29196    0.43887    0.10369   1.00
C6       0.20171    0.38219    0.12162   1.00
C6       0.31897    0.44777    0.13533   1.00
C6       0.56224    0.43298    0.07756   1.00
C6       0.63598    0.43117    0.10560   1.00
H2       0.59510    0.36060    0.08156   1.00
H2       0.56105    0.30974    0.12964   1.00
C6       0.47177    0.21162    0.13169   1.00
C6       0.57370    0.24173    0.10983   1.00
H2       0.43079    0.20505    0.08999   1.00
C6       0.39244    0.26063    0.07430   1.00
C6       0.49245    0.24978    0.06361   1.00
H2       0.31652    0.36329    0.06175   1.00
H2       0.25504    0.38729    0.06736   1.00
H2       0.23293    0.31357    0.05275   1.00
H2       0.14072    0.21898    0.07639   1.00
H2       0.14312    0.24474    0.10167   1.00
H2       0.14348    0.29609    0.08167   1.00
H2       0.31902    0.26699    0.15565   1.00
H2       0.36120    0.35175    0.14754   1.00
H2       0.27526    0.31309    0.15569   1.00
H2       0.19919    0.18515    0.11340   1.00
H2       0.22110    0.17729    0.13825   1.00
H2       0.17805    0.22287    0.13372   1.00
H2       0.17912    0.33867    0.13195   1.00
H2       0.19737    0.42362    0.12867   1.00
H2       0.17083    0.36927    0.10797   1.00
H2       0.29508    0.42362    0.14968   1.00
H2       0.37096    0.45770    0.13584   1.00
H2       0.32180    0.49742    0.13496   1.00
H2       0.55554    0.46996    0.08634   1.00
H2       0.60611    0.46194    0.06761   1.00
H2       0.51787    0.40532    0.06782   1.00
H2       0.67990    0.46703    0.09654   1.00
H2       0.62419    0.46145    0.11587   1.00
H2       0.65306    0.40214    0.11460   1.00
H2       0.49423    0.19664    0.14392   1.00
H2       0.43869    0.22787    0.13885   1.00
H2       0.43997    0.16641    0.12258   1.00
H2       0.61647    0.28013    0.10101   1.00
H2       0.59533    0.22580    0.12207   1.00
H2       0.54365    0.19736    0.10019   1.00
H2       0.40875    0.30986    0.06717   1.00
H2       0.36282    0.22065    0.06325   1.00
H2       0.35813    0.25466    0.08663   1.00
H2       0.45870    0.20553    0.05433   1.00
H2       0.51139    0.29505    0.05403   1.00
H2       0.53555    0.24362    0.06790   1.00
C4       0.63653    0.80657    0.71461   1.00
C4       0.68964    0.83360    0.69975   1.00
C3       0.59619    0.83655    0.71943   1.00
C3       0.71181    0.89651    0.68957   1.00
C3       0.62325    0.74683    0.72559   1.00
C3       0.72272    0.79603    0.69460   1.00
C2       0.53236    0.75076    0.74558   1.00
C2       0.79845    0.88552    0.67021   1.00
C3       0.54580    0.80968    0.73456   1.00
C3       0.76428    0.92149    0.67507   1.00
C3       0.57132    0.71978    0.74053   1.00
C3       0.77743    0.82350    0.68059   1.00
H1       0.60207    0.87865    0.71203   1.00
H1       0.69080    0.92626    0.69248   1.00
C5       0.66172    0.71434    0.72151   1.00
C5       0.70154    0.73160    0.70358   1.00
H1       0.51856    0.83383    0.73748   1.00
H1       0.77778    0.96700    0.66807   1.00
H1       0.56110    0.67583    0.74789   1.00
H1       0.80346    0.79809    0.67804   1.00
O3       0.65676    0.66395    0.73432   1.00
O3       0.72312    0.68863    0.69599   1.00
Si1      0.71090    0.68349    0.75296   1.00
Si1      0.68151    0.63840    0.67709   1.00
C6       0.67035    0.60295    0.76491   1.00
C6       0.78971    0.70179    0.74233   1.00
C6       0.71428    0.74729    0.76912   1.00
C6       0.61235    0.64359    0.66663   1.00
C6       0.74488    0.66069    0.65856   1.00
C6       0.65439    0.55432    0.68497   1.00
C6       0.59140    0.56951    0.76806   1.00
H2       0.67664    0.57096    0.75372   1.00
C6       0.69833    0.59097    0.78537   1.00
H2       0.77381    0.67301    0.72818   1.00
C6       0.84126    0.77711    0.73614   1.00
C6       0.83361    0.67633    0.75364   1.00
H2       0.66028    0.72920    0.77186   1.00
C6       0.74744    0.75507    0.79054   1.00
C6       0.74625    0.82255    0.76115   1.00
C6       0.55267    0.63191    0.68106   1.00
C6       0.62672    0.70562    0.65278   1.00
H2       0.59024    0.60038    0.65619   1.00
H2       0.75669    0.71156    0.65376   1.00
C6       0.81416    0.66880    0.66608   1.00
C6       0.72498    0.61598    0.63894   1.00
H2       0.69940    0.54905    0.68298   1.00
C6       0.63508    0.53818    0.70780   1.00
C6       0.59583    0.49439    0.67272   1.00
H2       0.56519    0.56535    0.75377   1.00
H2       0.57933    0.59922    0.77861   1.00
H2       0.56954    0.51779    0.77410   1.00
H2       0.68937    0.53886    0.78593   1.00
H2       0.75273    0.62529    0.78734   1.00
H2       0.67273    0.59696    0.79859   1.00
H2       0.88054    0.77922    0.72602   1.00
H2       0.81654    0.80055    0.72794   1.00
H2       0.86700    0.80829    0.74940   1.00
H2       0.80488    0.62133    0.75612   1.00
H2       0.87846    0.68629    0.74474   1.00
H2       0.85163    0.70199    0.76824   1.00
H2       0.79853    0.76178    0.78926   1.00
H2       0.75162    0.79874    0.79891   1.00
H2       0.71646    0.71108    0.80006   1.00
H2       0.80133    0.85169    0.76347   1.00
H2       0.73727    0.82585    0.74516   1.00
H2       0.72435    0.84914    0.76932   1.00
H2       0.56405    0.67819    0.68925   1.00
H2       0.50609    0.61660    0.67237   1.00
H2       0.54093    0.59179    0.69211   1.00
H2       0.57992    0.69672    0.64525   1.00
H2       0.64586    0.75275    0.66134   1.00
H2       0.66307    0.71383    0.64074   1.00
H2       0.85352    0.69371    0.65446   1.00
H2       0.83256    0.70072    0.67964   1.00
H2       0.80995    0.61973    0.66955   1.00
H2       0.67793    0.60924    0.63224   1.00
H2       0.76484    0.64043    0.62743   1.00
H2       0.71865    0.56575    0.64202   1.00
H2       0.59180    0.54424    0.71195   1.00
H2       0.62274    0.48635    0.71168   1.00
H2       0.67800    0.57249    0.71721   1.00
H2       0.59096    0.44553    0.67705   1.00
H2       0.54667    0.49107    0.67548   1.00
H2       0.60566    0.50008    0.65645   1.00
C4       0.17012    0.36056    0.71551   1.00
C4       0.14328    0.30771    0.70056   1.00
C3       0.21529    0.36527    0.73118   1.00
C3       0.15393    0.25101    0.70089   1.00
C3       0.15021    0.41122    0.71509   1.00
C3       0.10364    0.31124    0.68427   1.00
C2       0.21946    0.46706    0.74576   1.00
C2       0.08599    0.20213    0.67003   1.00
C3       0.23900    0.41680    0.74596   1.00
C3       0.12663    0.19999    0.68595   1.00
C3       0.17570    0.46353    0.72992   1.00
C3       0.07417    0.25781    0.66986   1.00
H1       0.23247    0.33154    0.73227   1.00
H1       0.18147    0.24488    0.71206   1.00
C5       0.10519    0.40948    0.69982   1.00
C5       0.09306    0.36766    0.68253   1.00
H1       0.27118    0.41734    0.75702   1.00
H1       0.13649    0.16048    0.68686   1.00
H1       0.16248    0.50061    0.72909   1.00
H1       0.04235    0.25889    0.65905   1.00
O3       0.07726    0.45116    0.70141   1.00
O3       0.06684    0.37897    0.66497   1.00
Si1      0.00281    0.42253    0.71211   1.00
Si1      0.11875    0.42023    0.64635   1.00
C6       0.00322    0.50067    0.71264   1.00
C6       -0.05909   0.36458    0.69508   1.00
C6       -0.00146   0.39064    0.73683   1.00
C6       0.20597    0.44596    0.64925   1.00
C6       0.08458    0.36291    0.62598   1.00
C6       0.10945    0.49130    0.64089   1.00
C6       0.07024    0.56367    0.72075   1.00
H2       0.00114    0.51075    0.69654   1.00
C6       -0.05661   0.50615    0.72277   1.00
H2       -0.03319   0.38218    0.68051   1.00
C6       -0.08017   0.28755    0.69657   1.00
C6       -0.12774   0.36489    0.69282   1.00
H2       0.04514    0.43109    0.74375   1.00
C6       -0.06157   0.38170    0.75070   1.00
C6       0.00009    0.32255    0.73981   1.00
C6       0.24512    0.49231    0.66775   1.00
C6       0.22926    0.39159    0.64761   1.00
H2       0.22876    0.47797    0.63591   1.00
H2       0.09501    0.32224    0.62995   1.00
C6       0.00539    0.32705    0.62319   1.00
C6       0.11669    0.38923    0.60456   1.00
H2       0.06367    0.47046    0.63149   1.00
C6       0.09422    0.52490    0.65928   1.00
C6       0.16707    0.55123    0.62838   1.00
H2       0.11493    0.57106    0.71230   1.00
H2       0.07843    0.55758    0.73677   1.00
H2       0.06833    0.61074    0.71913   1.00
H2       -0.06483   0.54361    0.71469   1.00
H2       -0.10462   0.45817    0.72269   1.00
H2       -0.04554   0.52338    0.73851   1.00
H2       -0.10692   0.26015    0.68283   1.00
H2       -0.03618   0.28059    0.69808   1.00
H2       -0.11433   0.26289    0.70938   1.00
H2       -0.11887   0.41537    0.68872   1.00
H2       -0.15934   0.33049    0.68073   1.00
H2       -0.15740   0.34842    0.70683   1.00
H2       -0.11075   0.35072    0.74325   1.00
H2       -0.06288   0.35731    0.76516   1.00
H2       -0.05613   0.43068    0.75476   1.00
H2       -0.05074   0.27767    0.73893   1.00
H2       0.03153    0.31549    0.72881   1.00
H2       0.02062    0.32199    0.75479   1.00
H2       0.23741    0.46251    0.68147   1.00
H2       0.29999    0.52040    0.66480   1.00
H2       0.22984    0.52997    0.67088   1.00
H2       0.28488    0.41648    0.64685   1.00
H2       0.21329    0.35752    0.66062   1.00
H2       0.21004    0.36073    0.63391   1.00
H2       -0.01213   0.28447    0.61255   1.00
H2       -0.02130   0.30586    0.63750   1.00
H2       -0.01061   0.36194    0.61734   1.00
H2       0.17216    0.41340    0.60492   1.00
H2       0.09835    0.34675    0.59384   1.00
H2       0.10302    0.42568    0.59849   1.00
H2       0.13561    0.54565    0.67032   1.00
H2       0.08522    0.56589    0.65446   1.00
H2       0.04832    0.48722    0.66697   1.00
H2       0.15068    0.58684    0.62337   1.00
H2       0.21337    0.58001    0.63740   1.00
H2       0.18013    0.53292    0.61477   1.00
C4       0.19053    0.82978    0.71544   1.00
C4       0.16446    0.85658    0.70051   1.00
C3       0.14947    0.78204    0.73052   1.00
C3       0.09613    0.84317    0.70030   1.00
C3       0.26175    0.85239    0.71565   1.00
C3       0.20861    0.89911    0.68480   1.00
C2       0.24768    0.78057    0.74574   1.00
C2       0.11604    0.91398    0.67005   1.00
C3       0.17726    0.75838    0.74533   1.00
C3       0.07237    0.87054    0.68539   1.00
C3       0.28860    0.82694    0.73048   1.00
C3       0.18446    0.92853    0.67042   1.00
H1       0.09812    0.76288    0.73115   1.00
H1       0.06171    0.81348    0.71104   1.00
C5       0.30564    0.90004    0.70099   1.00
C5       0.27674    0.91260    0.68359   1.00
H1       0.14514    0.72426    0.75594   1.00
H1       0.02229    0.85862    0.68589   1.00
H1       0.33946    0.84217    0.73010   1.00
H1       0.21784    0.96232    0.66006   1.00
O3       0.37529    0.93021    0.70325   1.00
O3       0.31589    0.94193    0.66648   1.00
Si1      0.41752    1.00369    0.71475   1.00
Si1      0.30945    0.89295    0.64746   1.00
C6       0.49686    1.00665    0.71583   1.00
C6       0.42070    1.06630    0.69817   1.00
C6       0.38632    1.00374    0.73929   1.00
C6       0.25026    0.80472    0.64934   1.00
C6       0.28659    0.92768    0.62717   1.00
C6       0.39172    0.90622    0.64261   1.00
C6       0.49485    0.94008    0.72345   1.00
H2       0.51100    1.01111    0.69983   1.00
C6       0.55971    1.06679    0.72680   1.00
H2       0.41505    1.04236    0.68339   1.00
C6       0.36245    1.08425    0.69942   1.00
C6       0.48830    1.13666    0.69686   1.00
H2       0.38135    0.95715    0.74586   1.00
C6       0.43431    1.06308    0.75391   1.00
C6       0.31494    0.99880    0.74178   1.00
C6       0.25727    0.76463    0.66762   1.00
C6       0.17219    0.77873    0.64701   1.00
H2       0.26220    0.78442    0.63592   1.00
H2       0.23443    0.91477    0.63071   1.00
C6       0.32760    1.00725    0.62521   1.00
C6       0.28455    0.89857    0.60551   1.00
H2       0.41620    0.95312    0.63370   1.00
C6       0.43882    0.92109    0.66143   1.00
C6       0.39809    0.85151    0.62975   1.00
H2       0.45973    0.89578    0.71445   1.00
H2       0.47881    0.92957    0.73930   1.00
H2       0.54496    0.94430    0.72219   1.00
H2       0.60690    1.07777    0.71909   1.00
H2       0.55759    1.11368    0.72704   1.00
H2       0.56471    1.05441    0.74249   1.00
H2       0.36216    1.11196    0.68587   1.00
H2       0.31223    1.03886    0.70028   1.00
H2       0.36917    1.11652    0.71252   1.00
H2       0.53166    1.13032    0.69299   1.00
H2       0.48538    1.16881    0.68497   1.00
H2       0.49884    1.16457    0.71115   1.00
H2       0.45151    1.11278    0.74691   1.00
H2       0.40903    1.06165    0.76821   1.00
H2       0.47854    1.05921    0.75823   1.00
H2       0.31883    1.04881    0.74128   1.00
H2       0.27828    0.96769    0.73031   1.00
H2       0.29263    0.97607    0.75646   1.00
H2       0.23280    0.76957    0.68123   1.00
H2       0.23273    0.71021    0.66411   1.00
H2       0.31028    0.78152    0.67121   1.00
H2       0.14338    0.72314    0.64566   1.00
H2       0.15151    0.79200    0.65999   1.00
H2       0.16099    0.79859    0.63337   1.00
H2       0.30243    1.02451    0.61452   1.00
H2       0.33039    1.03189    0.63972   1.00
H2       0.37950    1.02582    0.61983   1.00
H2       0.25504    0.84298    0.60529   1.00
H2       0.26029    0.91667    0.59475   1.00
H2       0.33581    0.91485    0.59988   1.00
H2       0.41835    0.87847    0.67204   1.00
H2       0.49001    0.93266    0.65702   1.00
H2       0.44428    0.96538    0.66948   1.00
H2       0.45102    0.87040    0.62521   1.00
H2       0.38127    0.80447    0.63834   1.00
H2       0.36819    0.83896    0.61584   1.00
