data_IRMOF10_interpen_symm_ligand3lp_label_l_1.

_audit_creation_method             'generated by an auxiliary program of Tobunporous'

_symmetry_space_group_name_H-M     'P 1'
_symmetry_Int_Tables_number        1
_symmetry_cell_setting             triclinic

_cell_length_a                    22.6523
_cell_length_b                    22.6523
_cell_length_c                    65.9502
_cell_angle_alpha                 90.0000
_cell_angle_beta                  90.0000
_cell_angle_gamma                 120.0000

loop_
_atom_site_label
_atom_site_fract_x
_atom_site_fract_y
_atom_site_fract_z
_atom_site_occupancy
O1       0.00000    -0.00000   0.62500   1.00
Zn1      0.00000    -0.00000   0.59589   1.00
Zn1      0.94848    1.04288    0.63392   1.00
Zn1      0.09439    0.05152    0.63392   1.00
Zn1      -0.04288   0.90561    0.63392   1.00
O2       0.93860    0.02610    0.58587   1.00
O2       0.08750    0.06140    0.58587   1.00
O2       -0.02610   0.91250    0.58587   1.00
O2       0.91305    0.07161    0.61181   1.00
O2       0.00462    0.12022    0.65110   1.00
O2       0.87413    0.98074    0.65071   1.00
O2       0.15856    0.08695    0.61181   1.00
O2       0.10660    0.12587    0.65071   1.00
O2       0.11559    0.99538    0.65110   1.00
O2       -0.07161   0.84144    0.61181   1.00
O2       0.87978    0.88441    0.65110   1.00
O2       0.01926    0.89340    0.65071   1.00
C1       0.91390    0.06020    0.59358   1.00
C1       0.14630    0.08610    0.59358   1.00
C1       -0.06020   0.85370    0.59358   1.00
C1       0.06663    0.14397    0.65673   1.00
C1       0.85603    0.92267    0.65673   1.00
C1       0.07733    0.93337    0.65673   1.00
O1       -0.00000   0.00000    0.87500   1.00
Zn1      -0.00000   0.00000    0.90411   1.00
Zn1      1.04288    0.94848    0.86608   1.00
Zn1      0.05152    0.09439    0.86608   1.00
Zn1      0.90561    -0.04288   0.86608   1.00
O2       0.02610    0.93860    0.91413   1.00
O2       0.06140    0.08750    0.91413   1.00
O2       0.91250    -0.02610   0.91413   1.00
O2       0.07161    0.91305    0.88819   1.00
O2       0.12022    0.00462    0.84890   1.00
O2       0.98074    0.87413    0.84929   1.00
O2       0.08695    0.15856    0.88819   1.00
O2       0.12587    0.10660    0.84929   1.00
O2       0.99538    0.11559    0.84890   1.00
O2       0.84144    -0.07161   0.88819   1.00
O2       0.88441    0.87978    0.84890   1.00
O2       0.89340    0.01926    0.84929   1.00
C1       0.06020    0.91390    0.90642   1.00
C1       0.08610    0.14630    0.90642   1.00
C1       0.85370    -0.06020   0.90642   1.00
C1       0.14397    0.06663    0.84327   1.00
C1       0.92267    0.85603    0.84327   1.00
C1       0.93337    0.07733    0.84327   1.00
O1       0.00000    0.00000    0.37500   1.00
Zn1      0.00000    0.00000    0.40411   1.00
Zn1      0.05152    -0.04288   0.36608   1.00
Zn1      0.90561    0.94848    0.36608   1.00
Zn1      1.04288    0.09439    0.36608   1.00
O2       0.06140    -0.02610   0.41413   1.00
O2       0.91250    0.93860    0.41413   1.00
O2       0.02610    0.08750    0.41413   1.00
O2       0.08695    -0.07161   0.38819   1.00
O2       0.99538    0.87978    0.34890   1.00
O2       0.12587    0.01926    0.34929   1.00
O2       0.84144    0.91305    0.38819   1.00
O2       0.89340    0.87413    0.34929   1.00
O2       0.88441    0.00462    0.34890   1.00
O2       0.07161    0.15856    0.38819   1.00
O2       0.12022    0.11559    0.34890   1.00
O2       0.98074    0.10660    0.34929   1.00
C1       0.08610    -0.06020   0.40642   1.00
C1       0.85370    0.91390    0.40642   1.00
C1       0.06020    0.14630    0.40642   1.00
C1       0.93337    0.85603    0.34327   1.00
C1       0.14397    0.07733    0.34327   1.00
C1       0.92267    0.06663    0.34327   1.00
O1       0.00000    0.00000    0.12500   1.00
Zn1      0.00000    0.00000    0.09589   1.00
Zn1      -0.04288   0.05152    0.13392   1.00
Zn1      0.94848    0.90561    0.13392   1.00
Zn1      0.09439    1.04288    0.13392   1.00
O2       -0.02610   0.06140    0.08587   1.00
O2       0.93860    0.91250    0.08587   1.00
O2       0.08750    0.02610    0.08587   1.00
O2       -0.07161   0.08695    0.11181   1.00
O2       0.87978    0.99538    0.15110   1.00
O2       0.01926    0.12587    0.15071   1.00
O2       0.91305    0.84144    0.11181   1.00
O2       0.87413    0.89340    0.15071   1.00
O2       0.00462    0.88441    0.15110   1.00
O2       0.15856    0.07161    0.11181   1.00
O2       0.11559    0.12022    0.15110   1.00
O2       0.10660    0.98074    0.15071   1.00
C1       -0.06020   0.08610    0.09358   1.00
C1       0.91390    0.85370    0.09358   1.00
C1       0.14630    0.06020    0.09358   1.00
C1       0.85603    0.93337    0.15673   1.00
C1       0.07733    0.14397    0.15673   1.00
C1       0.06663    0.92267    0.15673   1.00
O1       0.66667    0.33333    0.95833   1.00
Zn1      0.66667    0.33333    0.92922   1.00
Zn1      0.61515    0.37621    0.96725   1.00
Zn1      0.76106    0.38485    0.96725   1.00
Zn1      -0.37621   0.23894    0.96725   1.00
O2       0.60527    0.35943    0.91920   1.00
O2       0.75417    0.39473    0.91920   1.00
O2       0.64057    0.24583    0.91920   1.00
O2       0.57972    0.40494    0.94514   1.00
O2       0.67129    0.45355    0.98443   1.00
O2       0.54080    0.31407    0.98404   1.00
O2       0.82523    0.42028    0.94514   1.00
O2       0.77327    0.45920    0.98404   1.00
O2       -0.21774   0.32871    0.98443   1.00
O2       0.59506    0.17477    0.94514   1.00
O2       0.54645    0.21774    0.98443   1.00
O2       -0.31407   0.22673    0.98404   1.00
C1       0.58057    0.39353    0.92691   1.00
C1       0.81297    0.41943    0.92691   1.00
C1       0.60647    0.18703    0.92691   1.00
C1       0.73330    0.47730    0.99006   1.00
C1       0.52270    0.25600    0.99006   1.00
C1       -0.25600   0.26670    0.99006   1.00
O1       0.66667    0.33333    0.20833   1.00
Zn1      0.66667    0.33333    0.23744   1.00
Zn1      0.70954    0.28182    0.19942   1.00
Zn1      0.71818    0.42773    0.19942   1.00
Zn1      0.57227    0.29046    0.19942   1.00
O2       0.69277    0.27193    0.24746   1.00
O2       0.72807    0.42083    0.24746   1.00
O2       0.57917    0.30723    0.24746   1.00
O2       0.73828    0.24638    0.22152   1.00
O2       0.78688    0.33796    0.18224   1.00
O2       0.64740    0.20747    0.18263   1.00
O2       0.75362    0.49189    0.22152   1.00
O2       0.79253    0.43994    0.18263   1.00
O2       0.66204    0.44893    0.18224   1.00
O2       0.50811    0.26172    0.22152   1.00
O2       0.55107    0.21312    0.18224   1.00
O2       0.56006    0.35260    0.18263   1.00
C1       0.72687    0.24723    0.23975   1.00
C1       0.75277    0.47963    0.23975   1.00
C1       0.52037    0.27313    0.23975   1.00
C1       0.81063    0.39997    0.17661   1.00
C1       0.58933    0.18937    0.17661   1.00
C1       0.60003    0.41067    0.17661   1.00
O1       0.66667    0.33333    0.70833   1.00
Zn1      0.66667    0.33333    0.73744   1.00
Zn1      0.71818    0.29046    0.69942   1.00
Zn1      0.57227    0.28182    0.69942   1.00
Zn1      0.70954    0.42773    0.69942   1.00
O2       0.72807    0.30723    0.74746   1.00
O2       0.57917    0.27193    0.74746   1.00
O2       0.69277    0.42083    0.74746   1.00
O2       0.75362    0.26172    0.72152   1.00
O2       0.66204    0.21312    0.68224   1.00
O2       0.79253    0.35260    0.68263   1.00
O2       0.50811    0.24638    0.72152   1.00
O2       0.56006    0.20747    0.68263   1.00
O2       0.55107    0.33796    0.68224   1.00
O2       0.73828    0.49189    0.72152   1.00
O2       0.78688    0.44893    0.68224   1.00
O2       0.64740    0.43994    0.68263   1.00
C1       0.75277    0.27313    0.73975   1.00
C1       0.52037    0.24723    0.73975   1.00
C1       0.72687    0.47963    0.73975   1.00
C1       0.60003    0.18937    0.67661   1.00
C1       0.81063    0.41067    0.67661   1.00
C1       0.58933    0.39997    0.67661   1.00
O1       0.66667    0.33333    0.45833   1.00
Zn1      0.66667    0.33333    0.42922   1.00
Zn1      -0.37621   0.38485    0.46725   1.00
Zn1      0.61515    0.23894    0.46725   1.00
Zn1      0.76106    0.37621    0.46725   1.00
O2       0.64057    0.39473    0.41920   1.00
O2       0.60527    0.24583    0.41920   1.00
O2       0.75417    0.35943    0.41920   1.00
O2       0.59506    0.42028    0.44514   1.00
O2       0.54645    0.32871    0.48443   1.00
O2       -0.31407   0.45920    0.48404   1.00
O2       0.57972    0.17477    0.44514   1.00
O2       0.54080    0.22673    0.48404   1.00
O2       0.67129    0.21774    0.48443   1.00
O2       0.82523    0.40494    0.44514   1.00
O2       -0.21774   0.45355    0.48443   1.00
O2       0.77327    0.31407    0.48404   1.00
C1       0.60647    0.41943    0.42691   1.00
C1       0.58057    0.18703    0.42691   1.00
C1       0.81297    0.39353    0.42691   1.00
C1       0.52270    0.26670    0.49006   1.00
C1       -0.25600   0.47730    0.49006   1.00
C1       0.73330    0.25600    0.49006   1.00
O1       0.33333    0.66667    0.29167   1.00
Zn1      0.33333    0.66667    0.26256   1.00
Zn1      0.28182    0.70954    0.30058   1.00
Zn1      0.42773    0.71818    0.30058   1.00
Zn1      0.29046    0.57227    0.30058   1.00
O2       0.27193    0.69277    0.25254   1.00
O2       0.42083    0.72807    0.25254   1.00
O2       0.30723    0.57917    0.25254   1.00
O2       0.24638    0.73828    0.27848   1.00
O2       0.33796    0.78688    0.31776   1.00
O2       0.20747    0.64740    0.31737   1.00
O2       0.49189    0.75362    0.27848   1.00
O2       0.43994    0.79253    0.31737   1.00
O2       0.44893    0.66204    0.31776   1.00
O2       0.26172    0.50811    0.27848   1.00
O2       0.21312    0.55107    0.31776   1.00
O2       0.35260    0.56006    0.31737   1.00
C1       0.24723    0.72687    0.26025   1.00
C1       0.47963    0.75277    0.26025   1.00
C1       0.27313    0.52037    0.26025   1.00
C1       0.39997    0.81063    0.32339   1.00
C1       0.18937    0.58933    0.32339   1.00
C1       0.41067    0.60003    0.32339   1.00
O1       0.33333    0.66667    0.54167   1.00
Zn1      0.33333    0.66667    0.57078   1.00
Zn1      0.37621    0.61515    0.53275   1.00
Zn1      0.38485    0.76106    0.53275   1.00
Zn1      0.23894    -0.37621   0.53275   1.00
O2       0.35943    0.60527    0.58080   1.00
O2       0.39473    0.75417    0.58080   1.00
O2       0.24583    0.64057    0.58080   1.00
O2       0.40494    0.57972    0.55486   1.00
O2       0.45355    0.67129    0.51557   1.00
O2       0.31407    0.54080    0.51596   1.00
O2       0.42028    0.82523    0.55486   1.00
O2       0.45920    0.77327    0.51596   1.00
O2       0.32871    -0.21774   0.51557   1.00
O2       0.17477    0.59506    0.55486   1.00
O2       0.21774    0.54645    0.51557   1.00
O2       0.22673    -0.31407   0.51596   1.00
C1       0.39353    0.58057    0.57309   1.00
C1       0.41943    0.81297    0.57309   1.00
C1       0.18703    0.60647    0.57309   1.00
C1       0.47730    0.73330    0.50994   1.00
C1       0.25600    0.52270    0.50994   1.00
C1       0.26670    -0.25600   0.50994   1.00
O1       0.33333    0.66667    0.04167   1.00
Zn1      0.33333    0.66667    0.07078   1.00
Zn1      0.38485    -0.37621   0.03275   1.00
Zn1      0.23894    0.61515    0.03275   1.00
Zn1      0.37621    0.76106    0.03275   1.00
O2       0.39473    0.64057    0.08080   1.00
O2       0.24583    0.60527    0.08080   1.00
O2       0.35943    0.75417    0.08080   1.00
O2       0.42028    0.59506    0.05486   1.00
O2       0.32871    0.54645    0.01557   1.00
O2       0.45920    -0.31407   0.01596   1.00
O2       0.17477    0.57972    0.05486   1.00
O2       0.22673    0.54080    0.01596   1.00
O2       0.21774    0.67129    0.01557   1.00
O2       0.40494    0.82523    0.05486   1.00
O2       0.45355    -0.21774   0.01557   1.00
O2       0.31407    0.77327    0.01596   1.00
C1       0.41943    0.60647    0.07309   1.00
C1       0.18703    0.58057    0.07309   1.00
C1       0.39353    0.81297    0.07309   1.00
C1       0.26670    0.52270    0.00994   1.00
C1       0.47730    -0.25600   0.00994   1.00
C1       0.25600    0.73330    0.00994   1.00
O1       0.33333    0.66667    0.79167   1.00
Zn1      0.33333    0.66667    0.76256   1.00
Zn1      0.29046    0.71818    0.80058   1.00
Zn1      0.28182    0.57227    0.80058   1.00
Zn1      0.42773    0.70954    0.80058   1.00
O2       0.30723    0.72807    0.75254   1.00
O2       0.27193    0.57917    0.75254   1.00
O2       0.42083    0.69277    0.75254   1.00
O2       0.26172    0.75362    0.77848   1.00
O2       0.21312    0.66204    0.81776   1.00
O2       0.35260    0.79253    0.81737   1.00
O2       0.24638    0.50811    0.77848   1.00
O2       0.20747    0.56006    0.81737   1.00
O2       0.33796    0.55107    0.81776   1.00
O2       0.49189    0.73828    0.77848   1.00
O2       0.44893    0.78688    0.81776   1.00
O2       0.43994    0.64740    0.81737   1.00
C1       0.27313    0.75277    0.76025   1.00
C1       0.24723    0.52037    0.76025   1.00
C1       0.47963    0.72687    0.76025   1.00
C1       0.18937    0.60003    0.82339   1.00
C1       0.41067    0.81063    0.82339   1.00
C1       0.39997    0.58933    0.82339   1.00
C4       -0.12678   0.69648    0.54818   1.00
C4       -0.15094   0.64447    0.53299   1.00
C3       -0.07561   0.70733    0.56256   1.00
C3       -0.13091   0.59431    0.53183   1.00
C3       -0.15577   0.73969    0.54941   1.00
C3       -0.19762   0.64201    0.51801   1.00
C2       -0.08310   0.80055    0.57907   1.00
C2       -0.20329   0.54001    0.50208   1.00
C3       -0.05462   0.75766    0.57765   1.00
C3       -0.15585   0.54389    0.51669   1.00
C3       -0.13299   0.79100    0.56451   1.00
C3       -0.22438   0.58905    0.50342   1.00
H1       -0.05193   0.67915    0.56244   1.00
H1       -0.09796   0.59265    0.54201   1.00
C5       -0.20713   0.73156    0.53549   1.00
C5       -0.21787   0.69196    0.51776   1.00
H1       -0.01776   0.76282    0.58772   1.00
H1       -0.13912   0.50930    0.51649   1.00
H1       -0.15289   0.82285    0.56485   1.00
H1       -0.26103   0.58541    0.49361   1.00
O3       -0.24281   0.76526    0.53877   1.00
O3       -0.25176   0.69873    0.50127   1.00
Si1      -0.31514   0.72728    0.55103   1.00
Si1      -0.20727   0.74498    0.48205   1.00
C6       -0.32644   0.79872    0.55317   1.00
C6       -0.37635   0.66524    0.53469   1.00
C6       -0.30885   0.69679    0.57512   1.00
C6       -0.11762   0.78191    0.48290   1.00
C6       -0.23987   0.68791    0.46158   1.00
C6       -0.22929   0.80862    0.47836   1.00
C6       -0.26270   0.86642    0.56057   1.00
H2       -0.33408   0.80805    0.53740   1.00
C6       -0.38852   0.79417    0.56514   1.00
H2       -0.35498   0.68574    0.51978   1.00
C6       -0.38674   0.59156    0.53520   1.00
C6       -0.45003   0.65496    0.53448   1.00
H2       -0.26371   0.74076    0.58148   1.00
C6       -0.36814   0.67893    0.59053   1.00
C6       -0.29614   0.63475    0.57663   1.00
C6       -0.07850   0.82979    0.50113   1.00
C6       -0.08496   0.73590    0.47944   1.00
H2       -0.10144   0.81506    0.46960   1.00
H2       -0.22163   0.65226    0.46439   1.00
C6       -0.31941   0.64297    0.46040   1.00
C6       -0.21487   0.71753    0.43984   1.00
H2       -0.27713   0.78277    0.46992   1.00
C6       -0.24616   0.83644    0.49783   1.00
C6       -0.18007   0.87265    0.46545   1.00
H2       -0.21829   0.88032    0.55098   1.00
H2       -0.24917   0.86167    0.57616   1.00
H2       -0.27227   0.90917    0.55999   1.00
H2       -0.40491   0.82735    0.55811   1.00
H2       -0.43236   0.74291    0.56548   1.00
H2       -0.37554   0.81118    0.58084   1.00
H2       -0.41439   0.56278    0.52174   1.00
H2       -0.33849   0.59197    0.53526   1.00
H2       -0.41626   0.56339    0.54846   1.00
H2       -0.44926   0.70257    0.53118   1.00
H2       -0.48138   0.61898    0.52265   1.00
H2       -0.47572   0.63493    0.54897   1.00
H2       -0.41759   0.64322    0.58391   1.00
H2       -0.36233   0.65603    0.60446   1.00
H2       -0.36879   0.72440    0.59543   1.00
H2       -0.34365   0.58590    0.57633   1.00
H2       -0.26426   0.63347    0.56459   1.00
H2       -0.27057   0.63699    0.59093   1.00
H2       -0.07885   0.80099    0.51440   1.00
H2       -0.02507   0.86403    0.49715   1.00
H2       -0.09973   0.86174    0.50548   1.00
H2       -0.02971   0.76726    0.47756   1.00
H2       -0.09364   0.70193    0.49217   1.00
H2       -0.10405   0.70511    0.46573   1.00
H2       -0.33417   0.60166    0.44944   1.00
H2       -0.34115   0.61907    0.47500   1.00
H2       -0.34316   0.67252    0.45577   1.00
H2       -0.15939   0.74818    0.43907   1.00
H2       -0.23054   0.67618    0.42883   1.00
H2       -0.23643   0.74888    0.43496   1.00
H2       -0.20257   0.86149    0.50803   1.00
H2       -0.26313   0.87263    0.49414   1.00
H2       -0.28743   0.79470    0.50606   1.00
H2       -0.20414   0.90278    0.46167   1.00
H2       -0.13297   0.90585    0.47366   1.00
H2       -0.16668   0.85833    0.45112   1.00
C4       0.30595    0.17732    0.54888   1.00
C4       0.35748    0.20453    0.53355   1.00
C3       0.31571    0.20397    0.56887   1.00
C3       0.42565    0.25696    0.53717   1.00
C3       0.24116    0.11957    0.54424   1.00
C3       0.34053    0.17841    0.51338   1.00
C2       0.20030    0.11730    0.57933   1.00
C2       0.45914    0.25575    0.50182   1.00
C3       0.26451    0.17459    0.58371   1.00
C3       0.47494    0.28234    0.52171   1.00
C3       0.18974    0.09147    0.55932   1.00
C3       0.39168    0.20265    0.49823   1.00
H1       0.36022    0.24565    0.57321   1.00
H1       0.44161    0.27796    0.55118   1.00
C5       0.22805    0.09046    0.52454   1.00
C5       0.27287    0.12788    0.50846   1.00
H1       0.27467    0.19576    0.59795   1.00
H1       0.52328    0.32069    0.52518   1.00
H1       0.14289    0.05123    0.55560   1.00
H1       0.37979    0.18040    0.48421   1.00
O3       0.17020    0.02850    0.52107   1.00
O3       0.25228    0.11176    0.48851   1.00
Si1      0.17350    -0.04174   0.52276   1.00
Si1      0.22715    0.15785    0.47622   1.00
C6       0.08509    -0.09911   0.52055   1.00
C6       0.21793    -0.04563   0.50131   1.00
C6       0.20516    -0.05107   0.54630   1.00
C6       0.23033    0.22829    0.48884   1.00
C6       0.28163    0.18672    0.45510   1.00
C6       0.14381    0.10218    0.46749   1.00
C6       0.03790    -0.08332   0.53418   1.00
H2       0.07477    -0.09036   0.50499   1.00
C6       0.05531    -0.17816   0.52233   1.00
H2       0.20939    -0.01445   0.49039   1.00
C6       0.29711    -0.01333   0.50280   1.00
C6       0.19213    -0.11615   0.49068   1.00
H2       0.17599    -0.03910   0.55708   1.00
C6       0.19116    -0.12413   0.55202   1.00
C6       0.28250    -0.00299   0.55166   1.00
C6       0.19035    0.21486    0.50923   1.00
C6       0.30082    0.29467    0.49213   1.00
H2       0.20416    0.24424    0.47816   1.00
H2       0.33114    0.22304    0.46152   1.00
C6       0.29291    0.13210    0.44394   1.00
C6       0.26633    0.22593    0.43828   1.00
H2       0.15135    0.07954    0.45382   1.00
C6       0.09792    0.04049    0.48148   1.00
C6       0.09896    0.13370    0.46093   1.00
H2       0.04724    -0.03168   0.53162   1.00
H2       0.04601    -0.08840   0.55028   1.00
H2       -0.01594   -0.11796   0.53078   1.00
H2       0.01075    -0.20509   0.51249   1.00
H2       0.09168    -0.19389   0.51798   1.00
H2       0.03812    -0.19693   0.53769   1.00
H2       0.31971    -0.00603   0.48769   1.00
H2       0.32129    0.03674    0.50991   1.00
H2       0.31076    -0.04612   0.51131   1.00
H2       0.13875    -0.13903   0.48620   1.00
H2       0.22067    -0.11074   0.47675   1.00
H2       0.19806    -0.15154   0.50058   1.00
H2       0.20870    -0.14515   0.54008   1.00
H2       0.21662    -0.12412   0.56613   1.00
H2       0.13726    -0.15881   0.55474   1.00
H2       0.31440    -0.02309   0.54611   1.00
H2       0.30356    0.04808    0.54560   1.00
H2       0.28909    0.00216    0.56813   1.00
H2       0.21963    0.21287    0.52206   1.00
H2       0.17943    0.25589    0.51232   1.00
H2       0.14162    0.16751    0.50891   1.00
H2       0.29355    0.33636    0.49745   1.00
H2       0.33192    0.28784    0.50342   1.00
H2       0.33016    0.31245    0.47812   1.00
H2       0.33581    0.15678    0.43339   1.00
H2       0.30526    0.10299    0.45465   1.00
H2       0.24809    0.09624    0.43529   1.00
H2       0.25969    0.26670    0.44466   1.00
H2       0.30882    0.24976    0.42756   1.00
H2       0.22063    0.19165    0.42966   1.00
H2       0.08863    0.05666    0.49614   1.00
H2       0.04868    0.00642    0.47444   1.00
H2       0.12251    0.01060    0.48424   1.00
H2       0.05308    0.09596    0.45299   1.00
H2       0.08265    0.15150    0.47404   1.00
H2       0.12616    0.17647    0.45056   1.00
C4       0.82756    0.13520    0.54927   1.00
C4       0.80026    0.15836    0.53363   1.00
C3       0.87305    0.17850    0.56447   1.00
C3       0.82050    0.22801    0.53051   1.00
C3       0.80951    0.06512    0.54972   1.00
C3       0.74975    0.10965    0.52028   1.00
C2       0.88317    0.08514    0.57979   1.00
C2       0.74378    0.20125    0.50136   1.00
C3       0.90042    0.15430    0.57924   1.00
C3       0.79260    0.24884    0.51495   1.00
C3       0.83668    0.04144    0.56498   1.00
C3       0.72443    0.13199    0.50416   1.00
H1       0.88746    0.22885    0.56529   1.00
H1       0.85641    0.26569    0.53938   1.00
C5       0.76424    0.01910    0.53497   1.00
C5       0.72518    0.03903    0.52296   1.00
H1       0.93348    0.18809    0.58976   1.00
H1       0.80873    0.29984    0.51352   1.00
H1       0.82180    -0.00933   0.56545   1.00
H1       0.69156    0.09694    0.49396   1.00
O3       0.75591    -0.04530   0.53336   1.00
O3       0.66745    -0.00934   0.51296   1.00
Si1      0.80229    -0.05951   0.51730   1.00
Si1      0.59286    -0.03306   0.52289   1.00
C6       0.77687    -0.14334   0.52523   1.00
C6       0.77168    -0.05886   0.49276   1.00
C6       0.89077    -0.00474   0.52068   1.00
C6       0.58944    0.00664    0.54560   1.00
C6       0.55046    -0.01564   0.50355   1.00
C6       0.55154    -0.12213   0.52617   1.00
C6       0.77763    -0.15411   0.54870   1.00
H2       0.72313    -0.17105   0.52089   1.00
C6       0.80907    -0.18417   0.51558   1.00
H2       0.71901    -0.07246   0.49583   1.00
C6       0.80390    0.01033    0.48097   1.00
C6       0.76733    -0.11236   0.47691   1.00
H2       0.89649    -0.00737   0.53706   1.00
C6       0.93969    -0.02662   0.51068   1.00
C6       0.92364    0.07299    0.51523   1.00
C6       0.62959    0.00304    0.56441   1.00
C6       0.60220    0.08129    0.54492   1.00
H2       0.53572    -0.02372   0.54977   1.00
H2       0.57654    0.03993    0.50306   1.00
C6       0.55741    -0.03830   0.48165   1.00
C6       0.47309    -0.04056   0.50678   1.00
H2       0.53126    -0.14248   0.51115   1.00
C6       0.59799    -0.15245   0.53165   1.00
C6       0.48934    -0.15605   0.54104   1.00
H2       0.74684    -0.13689   0.55677   1.00
H2       0.82947    -0.12626   0.55475   1.00
H2       0.75635    -0.20804   0.55242   1.00
H2       0.77117    -0.23850   0.51500   1.00
H2       0.82740    -0.16796   0.50021   1.00
H2       0.85182    -0.17972   0.52447   1.00
H2       0.77155    0.00712    0.46821   1.00
H2       0.80922    0.05199    0.49048   1.00
H2       0.85388    0.02377    0.47486   1.00
H2       0.73667    -0.16433   0.48260   1.00
H2       0.74275    -0.11002   0.46288   1.00
H2       0.81804    -0.10331   0.47295   1.00
H2       0.92912    -0.03666   0.49450   1.00
H2       0.99337    0.01252    0.51236   1.00
H2       0.93517    -0.07178   0.51792   1.00
H2       0.93851    0.08299    0.49930   1.00
H2       0.89040    0.09360    0.51818   1.00
H2       0.96979    0.10303    0.52424   1.00
H2       0.68311    0.04258    0.56392   1.00
H2       0.60839    0.01060    0.57842   1.00
H2       0.62695    -0.04615   0.56567   1.00
H2       0.58892    0.09496    0.55945   1.00
H2       0.65532    0.11865    0.54197   1.00
H2       0.57088    0.08748    0.53350   1.00
H2       0.53962    -0.01527   0.47037   1.00
H2       0.61054    -0.02165   0.47797   1.00
H2       0.52769    -0.09352   0.47977   1.00
H2       0.46358    -0.02516   0.52154   1.00
H2       0.45506    -0.01831   0.49531   1.00
H2       0.44204    -0.09595   0.50550   1.00
H2       0.62361    -0.13372   0.54618   1.00
H2       0.56909    -0.20810   0.53223   1.00
H2       0.63694    -0.13848   0.52010   1.00
H2       0.46200    -0.21156   0.53939   1.00
H2       0.50567    -0.14429   0.55684   1.00
H2       0.45260    -0.13940   0.53802   1.00
C4       0.69266    -0.13580   0.95083   1.00
C4       0.64227    -0.15873   0.96649   1.00
C3       0.70167    -0.18046   0.93774   1.00
C3       0.60013    -0.22839   0.97182   1.00
C3       0.73753    -0.06433   0.94818   1.00
C3       0.63286    -0.10981   0.97752   1.00
C2       0.79797    -0.08550   0.92020   1.00
C2       0.54259    -0.20089   0.99865   1.00
C3       0.75310    -0.15607   0.92292   1.00
C3       0.55121    -0.24898   0.98732   1.00
C3       0.78826    -0.04071   0.93289   1.00
C3       0.58532    -0.13138   0.99367   1.00
H1       0.67098    -0.23202   0.93854   1.00
H1       0.60401    -0.26619   0.96467   1.00
C5       0.73124    -0.01692   0.96076   1.00
C5       0.67127    -0.03962   0.97253   1.00
H1       0.75750    -0.19081   0.91398   1.00
H1       0.52176    -0.30011   0.99040   1.00
H1       0.81884    0.01073    0.93079   1.00
H1       0.58227    -0.09541   1.00226   1.00
O3       0.78128    0.05081    0.96047   1.00
O3       0.65386    0.00654    0.98011   1.00
Si1      0.84372    0.07922    0.97683   1.00
Si1      0.59599    0.01636    0.96832   1.00
C6       0.89334    0.16132    0.96625   1.00
C6       0.81034    0.08304    1.00063   1.00
C6       0.88807    0.03354    0.97650   1.00
C6       0.55611    -0.03494   0.94682   1.00
C6       0.53471    -0.00142   0.98723   1.00
C6       0.63340    0.10331    0.96194   1.00
C6       0.90410    0.16398    0.94270   1.00
H2       0.86130    0.18401    0.96885   1.00
C6       0.96503    0.21336    0.97528   1.00
H2       0.76658    0.08812    0.99630   1.00
C6       0.78138    0.01902    1.01475   1.00
C6       0.85459    0.14520    1.01482   1.00
H2       0.89665    0.03102    0.96029   1.00
C6       0.96026    0.06819    0.98668   1.00
C6       0.85200    -0.04185   0.98458   1.00
C6       0.60234    -0.03198   0.92878   1.00
C6       0.50141    -0.11200   0.94974   1.00
H2       0.52656    -0.01264   0.94093   1.00
H2       0.51170    -0.05621   0.98967   1.00
C6       0.56276    0.03201    1.00845   1.00
C6       0.47492    0.01176    0.98200   1.00
H2       0.63031    0.12745    0.97593   1.00
C6       0.71074    0.14068    0.95651   1.00
C6       0.59811    0.12403    0.94519   1.00
H2       0.85551    0.13784    0.93463   1.00
H2       0.93398    0.14019    0.93836   1.00
H2       0.93075    0.21656    0.93719   1.00
H2       0.97428    0.26539    0.97372   1.00
H2       0.96969    0.20481    0.99127   1.00
H2       1.00661    0.21192    0.96733   1.00
H2       0.74973    0.02222    1.02675   1.00
H2       0.74898    -0.02801   1.00655   1.00
H2       0.82240    0.01484    1.02206   1.00
H2       0.86944    0.19348    1.00724   1.00
H2       0.82615    0.14419    1.02836   1.00
H2       0.90041    0.14498    1.01988   1.00
H2       0.95810    0.08334    1.00227   1.00
H2       0.98176    0.03435    0.98702   1.00
H2       0.99680    0.11272    0.97820   1.00
H2       0.85866    -0.04413   1.00090   1.00
H2       0.79768    -0.07004   0.98164   1.00
H2       0.87382    -0.06998   0.97727   1.00
H2       0.62329    -0.06545   0.93128   1.00
H2       0.57285    -0.04862   0.91472   1.00
H2       0.64454    0.01939    0.92615   1.00
H2       0.47479    -0.13410   0.93547   1.00
H2       0.52393    -0.14229   0.95461   1.00
H2       0.46227    -0.11914   0.96068   1.00
H2       0.52265    0.00904    1.01994   1.00
H2       0.60423    0.02400    1.01347   1.00
H2       0.58156    0.08676    1.00830   1.00
H2       0.45075    -0.01167   0.96761   1.00
H2       0.43528    -0.01034   0.99365   1.00
H2       0.49246    0.06625    0.98122   1.00
H2       0.72102    0.11927    0.94305   1.00
H2       0.73082    0.19508    0.95392   1.00
H2       0.73949    0.13628    0.96901   1.00
H2       0.61970    0.17935    0.94484   1.00
H2       0.60484    0.10809    0.93013   1.00
H2       0.54363    0.10174    0.94799   1.00
C4       0.17732    0.30594    0.95112   1.00
C4       0.20453    0.35747    0.96646   1.00
C3       0.20408    0.31563    0.93115   1.00
C3       0.25709    0.42559    0.96284   1.00
C3       0.11946    0.24121    0.95575   1.00
C3       0.17829    0.34057    0.98661   1.00
C2       0.11729    0.20029    0.92067   1.00
C2       0.25576    0.45915    0.99818   1.00
C3       0.17470    0.26444    0.91630   1.00
C3       0.28246    0.47489    0.97830   1.00
C3       0.09135    0.18980    0.94067   1.00
C3       0.20253    0.39173    1.00176   1.00
H1       0.24585    0.36009    0.92682   1.00
H1       0.27819    0.44152    0.94885   1.00
C5       0.09023    0.22816    0.97543   1.00
C5       0.12762    0.27296    0.99152   1.00
H1       0.19596    0.27455    0.90208   1.00
H1       0.32091    0.52319    0.97484   1.00
H1       0.05103    0.14299    0.94437   1.00
H1       0.18019    0.37989    1.01577   1.00
O3       0.02818    0.17040    0.97887   1.00
O3       0.11135    0.25239    1.01147   1.00
Si1      -0.04195   0.17389    0.97713   1.00
Si1      0.15724    0.22712    1.02380   1.00
C6       -0.09948   0.08551    0.97933   1.00
C6       -0.04586   0.21839    0.99856   1.00
C6       -0.05105   0.20560    0.95358   1.00
C6       0.22767    0.23013    1.01123   1.00
C6       0.18609    0.28160    1.04492   1.00
C6       0.10138    0.14382    1.03252   1.00
C6       -0.08375   0.03821    0.96574   1.00
H2       -0.09086   0.07516    0.99491   1.00
C6       -0.17849   0.05589    0.97751   1.00
H2       -0.01480   0.20976    1.00951   1.00
C6       -0.01339   0.29758    0.99707   1.00
C6       -0.11642   0.19274    1.00915   1.00
H2       -0.03910   0.17636    0.94281   1.00
C6       -0.12402   0.19176    0.94781   1.00
C6       -0.00281   0.28291    0.94822   1.00
C6       0.21429    0.19012    0.99084   1.00
C6       0.29417    0.30053    1.00796   1.00
H2       0.24348    0.20389    1.02193   1.00
H2       0.22253    0.33108    1.03851   1.00
C6       0.13149    0.29304    1.05603   1.00
C6       0.22511    0.26620    1.06177   1.00
H2       0.07871    0.15144    1.04617   1.00
C6       0.03974    0.09802    1.01851   1.00
C6       0.13272    0.09884    1.03912   1.00
H2       -0.03217   0.04744    0.96833   1.00
H2       -0.08871   0.04634    0.94964   1.00
H2       -0.11850   -0.01560   0.96914   1.00
H2       -0.20557   0.01134    0.98735   1.00
H2       -0.19415   0.09234    0.98184   1.00
H2       -0.19719   0.03872    0.96214   1.00
H2       -0.00613   0.32020    1.01217   1.00
H2       0.03672    0.32167    0.98999   1.00
H2       -0.04605   0.31132    0.98852   1.00
H2       -0.13943   0.13935    1.01364   1.00
H2       -0.11103   0.22130    1.02308   1.00
H2       -0.15168   0.19875    0.99922   1.00
H2       -0.14504   0.20938    0.95972   1.00
H2       -0.12386   0.21725    0.93368   1.00
H2       -0.15878   0.13788    0.94509   1.00
H2       -0.02283   0.31490    0.95374   1.00
H2       0.04821    0.30387    0.95431   1.00
H2       0.00245    0.28949    0.93175   1.00
H2       0.21245    0.21943    0.97800   1.00
H2       0.25526    0.17908    0.98779   1.00
H2       0.16688    0.14144    0.99115   1.00
H2       0.33582    0.29315    1.00267   1.00
H2       0.28750    0.33168    0.99665   1.00
H2       0.31192    0.32988    1.02197   1.00
H2       0.15619    0.33594    1.06658   1.00
H2       0.10252    0.30547    1.04530   1.00
H2       0.09552    0.24826    1.06467   1.00
H2       0.26585    0.25944    1.05543   1.00
H2       0.24895    0.30868    1.07250   1.00
H2       0.19071    0.22053    1.07038   1.00
H2       0.05595    0.08868    1.00387   1.00
H2       0.00555    0.04881    1.02554   1.00
H2       0.00997    0.12272    1.01571   1.00
H2       0.09486    0.05299    1.04706   1.00
H2       0.15053    0.08246    1.02604   1.00
H2       0.17544    0.12597    1.04951   1.00
C4       0.13520    0.82756    0.95073   1.00
C4       0.15836    0.80026    0.96637   1.00
C3       0.17850    0.87304    0.93553   1.00
C3       0.22801    0.82049    0.96948   1.00
C3       0.06513    0.80953    0.95028   1.00
C3       0.10966    0.74976    0.97972   1.00
C2       0.08514    0.88317    0.92021   1.00
C2       0.20125    0.74378    0.99864   1.00
C3       0.15429    0.90041    0.92076   1.00
C3       0.24884    0.79258    0.98505   1.00
C3       0.04144    0.83669    0.93503   1.00
C3       0.13199    0.72444    0.99585   1.00
H1       0.22884    0.88743    0.93471   1.00
H1       0.26569    0.85639    0.96061   1.00
C5       0.01911    0.76426    0.96503   1.00
C5       0.03903    0.72521    0.97705   1.00
H1       0.18809    0.93345    0.91024   1.00
H1       0.29984    0.80871    0.98647   1.00
H1       -0.00933   0.82182    0.93456   1.00
H1       0.09694    0.69158    1.00605   1.00
O3       -0.04529   0.75595    0.96664   1.00
O3       -0.00934   0.66748    0.98705   1.00
Si1      -0.05947   0.80235    0.98271   1.00
Si1      -0.03308   0.59289    0.97712   1.00
C6       -0.14331   0.77695    0.97478   1.00
C6       -0.05882   0.77175    1.00725   1.00
C6       -0.00469   0.89083    0.97932   1.00
C6       0.00660    0.58944    0.95441   1.00
C6       -0.01567   0.55049    0.99647   1.00
C6       -0.12215   0.55158    0.97385   1.00
C6       -0.15409   0.77769    0.95131   1.00
H2       -0.17102   0.72321    0.97912   1.00
C6       -0.18412   0.80917    0.98444   1.00
H2       -0.07243   0.71907    1.00419   1.00
C6       0.01038    0.80397    1.01903   1.00
C6       -0.11230   0.76742    1.02310   1.00
H2       -0.00733   0.89654    0.96294   1.00
C6       -0.02655   0.93976    0.98932   1.00
C6       0.07304    0.92368    0.98476   1.00
C6       0.00300    0.62959    0.93560   1.00
C6       0.08125    0.60219    0.95509   1.00
H2       -0.02377   0.53572    0.95025   1.00
H2       0.03991    0.57656    0.99695   1.00
C6       -0.03830   0.55746    1.01836   1.00
C6       -0.04059   0.47311    0.99324   1.00
H2       -0.14249   0.53131    0.98887   1.00
C6       -0.15246   0.59804    0.96837   1.00
C6       -0.15610   0.48937    0.95898   1.00
H2       -0.13689   0.74688    0.94324   1.00
H2       -0.12623   0.82953    0.94526   1.00
H2       -0.20802   0.75642    0.94760   1.00
H2       -0.23845   0.77127    0.98502   1.00
H2       -0.16789   0.82750    0.99980   1.00
H2       -0.17966   0.85191    0.97554   1.00
H2       0.00717    0.77162    1.03179   1.00
H2       0.05203    0.80927    1.00952   1.00
H2       0.02384    0.85395    1.02515   1.00
H2       -0.16428   0.73676    1.01742   1.00
H2       -0.10996   0.74284    1.03713   1.00
H2       -0.10323   0.81813    1.02706   1.00
H2       -0.03658   0.92921    1.00550   1.00
H2       0.01259    0.99344    0.98764   1.00
H2       -0.07171   0.93525    0.98208   1.00
H2       0.08305    0.93856    1.00069   1.00
H2       0.09364    0.89044    0.98182   1.00
H2       0.10308    0.96982    0.97575   1.00
H2       0.04254    0.68311    0.93609   1.00
H2       0.01054    0.60837    0.92159   1.00
H2       -0.04619   0.62696    0.93434   1.00
H2       0.09490    0.58890    0.94056   1.00
H2       0.11861    0.65531    0.95804   1.00
H2       0.08744    0.57087    0.96651   1.00
H2       -0.01527   0.53967    1.02964   1.00
H2       -0.02164   0.61059    1.02204   1.00
H2       -0.09352   0.52775    1.02025   1.00
H2       -0.02521   0.46359    0.97848   1.00
H2       -0.01835   0.45508    1.00471   1.00
H2       -0.09599   0.44207    0.99452   1.00
H2       -0.13373   0.62365    0.95384   1.00
H2       -0.20812   0.56915    0.96780   1.00
H2       -0.13847   0.63700    0.97991   1.00
H2       -0.21160   0.46204    0.96063   1.00
H2       -0.14434   0.50569    0.94318   1.00
H2       -0.13945   0.45262    0.96200   1.00
C4       0.13309    0.30125    0.45263   1.00
C4       0.15681    0.35342    0.46776   1.00
C3       0.16377    0.26090    0.44880   1.00
C3       0.21713    0.37462    0.47928   1.00
C3       0.07617    0.28900    0.44034   1.00
C3       0.11846    0.38652    0.47179   1.00
C2       0.08418    0.19906    0.42107   1.00
C2       0.20221    0.46038    0.49778   1.00
C3       0.14027    0.21148    0.43339   1.00
C3       0.23890    0.42618    0.49401   1.00
C3       0.05244    0.23802    0.42511   1.00
C3       0.14283    0.44034    0.48608   1.00
H1       0.20394    0.26607    0.45715   1.00
H1       0.24725    0.35354    0.47722   1.00
C5       0.04314    0.32754    0.44338   1.00
C5       0.05636    0.36624    0.46143   1.00
H1       0.16480    0.18419    0.43122   1.00
H1       0.28260    0.43900    0.50200   1.00
H1       0.01039    0.22850    0.41679   1.00
H1       0.11714    0.46644    0.48785   1.00
O3       -0.00399   0.32368    0.42944   1.00
O3       0.01199    0.38768    0.46783   1.00
Si1      0.02015    0.37902    0.41097   1.00
Si1      -0.04265   0.34508    0.48575   1.00
C6       -0.05740   0.33961    0.39738   1.00
C6       0.03635    0.45729    0.42151   1.00
C6       0.08740    0.38302    0.39635   1.00
C6       -0.04039   0.27504    0.49675   1.00
C6       -0.02443   0.40734    0.50436   1.00
C6       -0.12459   0.31891    0.47605   1.00
C6       -0.09041   0.26083    0.39394   1.00
H2       -0.09179   0.34542    0.40773   1.00
C6       -0.06433   0.36903    0.37651   1.00
H2       0.00432    0.44063    0.43504   1.00
C6       0.11013    0.50812    0.42916   1.00
C6       0.01396    0.50219    0.40934   1.00
H2       0.06971    0.32915    0.39353   1.00
C6       0.10037    0.41757    0.37497   1.00
C6       0.16057    0.41411    0.40590   1.00
C6       -0.04899   0.21615    0.48245   1.00
C6       0.01814    0.28818    0.51195   1.00
H2       -0.08594   0.25247    0.50626   1.00
H2       0.02510    0.41857    0.51029   1.00
C6       -0.01417   0.47724    0.49662   1.00
C6       -0.07361   0.38643    0.52299   1.00
H2       -0.13001   0.36396    0.47762   1.00
C6       -0.13541   0.30107    0.45301   1.00
C6       -0.18742   0.25979    0.48721   1.00
H2       -0.09806   0.23368    0.40826   1.00
H2       -0.05847   0.24920    0.38420   1.00
H2       -0.14056   0.23961    0.38682   1.00
H2       -0.11608   0.36041    0.37476   1.00
H2       -0.02940   0.42350    0.37502   1.00
H2       -0.05545   0.34414    0.36363   1.00
H2       0.11010    0.54687    0.43906   1.00
H2       0.13135    0.48267    0.43805   1.00
H2       0.14441    0.53458    0.41651   1.00
H2       -0.04033   0.47387    0.40574   1.00
H2       0.02207    0.54654    0.41817   1.00
H2       0.04302    0.52101    0.39528   1.00
H2       0.10706    0.46868    0.37608   1.00
H2       0.14578    0.42200    0.36764   1.00
H2       0.05866    0.38737    0.36462   1.00
H2       0.19044    0.46931    0.40394   1.00
H2       0.16005    0.40408    0.42198   1.00
H2       0.18879    0.39249    0.39853   1.00
H2       -0.00098   0.22778    0.47531   1.00
H2       -0.06655   0.16899    0.49105   1.00
H2       -0.08637   0.20532    0.47054   1.00
H2       0.00724    0.24084    0.51955   1.00
H2       0.06714    0.30762    0.50441   1.00
H2       0.02372    0.32384    0.52392   1.00
H2       0.00813    0.51584    0.50856   1.00
H2       0.02087    0.49635    0.48374   1.00
H2       -0.06217   0.47355    0.49200   1.00
H2       -0.08218   0.33888    0.52981   1.00
H2       -0.05175   0.42555    0.53480   1.00
H2       -0.12288   0.38060    0.51875   1.00
H2       -0.12868   0.25788    0.44929   1.00
H2       -0.18612   0.28927    0.44798   1.00
H2       -0.09881   0.34449    0.44418   1.00
H2       -0.23503   0.25549    0.48174   1.00
H2       -0.19039   0.21068    0.48468   1.00
H2       -0.18551   0.26860    0.50351   1.00
C4       0.69589    0.82293    0.45164   1.00
C4       0.64528    0.79585    0.46725   1.00
C3       0.74691    0.80456    0.44914   1.00
C3       0.64441    0.75258    0.48298   1.00
C3       0.69665    0.87196    0.43787   1.00
C3       0.59218    0.81242    0.46726   1.00
C2       0.79852    0.88254    0.42033   1.00
C2       0.54204    0.74441    0.49852   1.00
C3       0.79706    0.83380    0.43400   1.00
C3       0.59387    0.72704    0.49808   1.00
C3       0.74690    0.89990    0.42246   1.00
C3       0.54344    0.78852    0.48311   1.00
H1       0.74900    0.76922    0.45820   1.00
H1       0.68070    0.73870    0.48401   1.00
C5       0.64705    0.89253    0.43954   1.00
C5       0.58828    0.85321    0.45160   1.00
H1       0.83297    0.81890    0.43301   1.00
H1       0.59547    0.69548    0.50898   1.00
H1       0.74567    0.93359    0.41234   1.00
H1       0.50838    0.80437    0.48363   1.00
O3       0.65463    0.94765    0.42854   1.00
O3       0.53060    0.85867    0.44904   1.00
Si1      0.69268    1.02352    0.43875   1.00
Si1      0.46717    0.80052    0.43585   1.00
C6       0.69660    1.06938    0.41665   1.00
C6       0.63628    1.02578    0.45675   1.00
C6       0.77503    1.04837    0.44801   1.00
C6       0.47421    0.73148    0.42618   1.00
C6       0.39849    0.76972    0.45289   1.00
C6       0.45112    0.84266    0.41599   1.00
C6       0.72294    1.05075    0.39703   1.00
H2       0.64284    1.05191    0.41378   1.00
C6       0.73312    1.14935    0.41681   1.00
H2       0.58682    0.98670    0.45099   1.00
C6       0.64002    1.00477    0.47912   1.00
C6       0.63139    1.09212    0.45855   1.00
H2       0.79759    1.03550    0.43532   1.00
C6       0.82375    1.12616    0.45227   1.00
C6       0.78314    1.01193    0.46722   1.00
C6       0.53611    0.74789    0.41209   1.00
C6       0.46630    0.67362    0.44089   1.00
H2       0.42937    0.70586    0.41643   1.00
H2       0.41032    0.74175    0.46412   1.00
C6       0.39123    0.82489    0.46520   1.00
C6       0.32599    0.71855    0.44445   1.00
H2       0.42076    0.86219    0.42310   1.00
C6       0.51442    0.90672    0.40701   1.00
C6       0.40850    0.79922    0.39739   1.00
H2       0.69301    0.99631    0.39366   1.00
H2       0.77629    1.06420    0.39861   1.00
H2       0.71887    1.07750    0.38377   1.00
H2       0.70731    1.16670    0.40641   1.00
H2       0.73339    1.17007    0.43170   1.00
H2       0.78601    1.17298    0.41172   1.00
H2       0.59415    0.99430    0.48753   1.00
H2       0.64317    0.95842    0.47987   1.00
H2       0.68372    1.04536    0.48710   1.00
H2       0.61866    1.10600    0.44402   1.00
H2       0.59105    1.08510    0.46909   1.00
H2       0.67917    1.13482    0.46410   1.00
H2       0.79976    1.14630    0.46235   1.00
H2       0.87170    1.13615    0.45927   1.00
H2       0.83851    1.15551    0.43830   1.00
H2       0.78093    1.03607    0.48131   1.00
H2       0.74474    0.95850    0.46829   1.00
H2       0.83264    1.01442    0.46689   1.00
H2       0.58170    0.76007    0.42079   1.00
H2       0.52482    0.70384    0.40261   1.00
H2       0.54826    0.79026    0.40188   1.00
H2       0.46226    0.63039    0.43231   1.00
H2       0.50972    0.69059    0.45103   1.00
H2       0.42019    0.65355    0.45007   1.00
H2       0.35499    0.80111    0.47767   1.00
H2       0.43974    0.86228    0.47201   1.00
H2       0.37315    0.85218    0.45576   1.00
H2       0.32571    0.67684    0.43609   1.00
H2       0.28953    0.69555    0.45691   1.00
H2       0.30712    0.74404    0.43450   1.00
H2       0.55047    0.89420    0.40006   1.00
H2       0.49969    0.93208    0.39565   1.00
H2       0.54101    0.94358    0.41897   1.00
H2       0.39326    0.82864    0.38776   1.00
H2       0.43779    0.78319    0.38802   1.00
H2       0.36174    0.75379    0.40214   1.00
C4       0.17196    -0.12848   0.45279   1.00
C4       0.19934    -0.15281   0.46807   1.00
C3       0.12201    -0.10952   0.45670   1.00
C3       0.17510    -0.16648   0.48836   1.00
C3       0.19467    -0.12362   0.43234   1.00
C3       0.25415    -0.16416   0.46299   1.00
C2       0.11667    -0.08298   0.42087   1.00
C2       0.25638    -0.20341   0.49798   1.00
C3       0.09482    -0.08776   0.44117   1.00
C3       0.20323    -0.19047   0.50296   1.00
C3       0.16754    -0.10033   0.41695   1.00
C3       0.27980    -0.19112   0.47770   1.00
H1       0.10409    -0.11073   0.47095   1.00
H1       0.13602    -0.15981   0.49310   1.00
C5       0.24454    -0.14176   0.42740   1.00
C5       0.28270    -0.14918   0.44325   1.00
H1       0.05845    -0.07519   0.44488   1.00
H1       0.18405    -0.19889   0.51745   1.00
H1       0.18569    -0.09530   0.40245   1.00
H1       0.31603    -0.20307   0.47348   1.00
O3       0.25791    -0.14791   0.40736   1.00
O3       0.34372    -0.14680   0.43914   1.00
Si1      0.21787    -0.22228   0.39625   1.00
Si1      0.41496    -0.07626   0.44357   1.00
C6       0.24723    -0.19358   0.37141   1.00
C6       0.25196    -0.27162   0.40585   1.00
C6       0.12824    -0.26109   0.39777   1.00
C6       0.41059    -0.00698   0.45429   1.00
C6       0.45797    -0.10225   0.46028   1.00
C6       0.46087    -0.05134   0.42062   1.00
C6       0.24270    -0.13005   0.36412   1.00
H2       0.30167    -0.17575   0.37271   1.00
C6       0.22157    -0.24429   0.35298   1.00
H2       0.30280    -0.23243   0.41064   1.00
C6       0.21801    -0.31670   0.42504   1.00
C6       0.26350    -0.31857   0.39088   1.00
H2       0.11973    -0.21940   0.39337   1.00
C6       0.08517    -0.32096   0.38269   1.00
C6       0.09175    -0.28806   0.41878   1.00
C6       0.36874    0.02033    0.44276   1.00
C6       0.39262    -0.00880   0.47732   1.00
H2       0.46353    0.03414    0.45343   1.00
H2       0.42873    -0.11366   0.47432   1.00
C6       0.45746    -0.16963   0.45456   1.00
C6       0.53330    -0.04873   0.46583   1.00
H2       0.48485    -0.08279   0.41974   1.00
C6       0.41775    -0.06765   0.40083   1.00
C6       0.52008    0.02428    0.41854   1.00
H2       0.26918    -0.08707   0.37452   1.00
H2       0.18971    -0.14195   0.36297   1.00
H2       0.26658    -0.11243   0.34927   1.00
H2       0.26223    -0.22849   0.34173   1.00
H2       0.20581    -0.29640   0.35733   1.00
H2       0.17858    -0.24522   0.34517   1.00
H2       0.25174    -0.33272   0.43190   1.00
H2       0.20774    -0.28918   0.43675   1.00
H2       0.17037    -0.36274   0.42115   1.00
H2       0.29580    -0.28956   0.37815   1.00
H2       0.28960    -0.34226   0.39836   1.00
H2       0.21507    -0.35952   0.38506   1.00
H2       0.09928    -0.36047   0.38366   1.00
H2       0.03041    -0.34493   0.38566   1.00
H2       0.09162    -0.30286   0.36714   1.00
H2       0.07989    -0.34028   0.42176   1.00
H2       0.12132    -0.25746   0.43155   1.00
H2       0.04345    -0.28805   0.41899   1.00
H2       0.31452    -0.00951   0.44623   1.00
H2       0.38564    0.07295    0.44721   1.00
H2       0.37490    0.02028    0.42639   1.00
H2       0.40135    0.04105    0.48227   1.00
H2       0.33944    -0.04547   0.48048   1.00
H2       0.42435    -0.02074   0.48697   1.00
H2       0.47489    -0.18764   0.46737   1.00
H2       0.40606    -0.21047   0.45081   1.00
H2       0.49062    -0.16253   0.44168   1.00
H2       0.53824    -0.00034   0.47064   1.00
H2       0.55106    -0.06722   0.47845   1.00
H2       0.56762    -0.03916   0.45305   1.00
H2       0.38888    -0.04098   0.40023   1.00
H2       0.44968    -0.05427   0.38728   1.00
H2       0.38169    -0.12196   0.40000   1.00
H2       0.55095    0.03056    0.40508   1.00
H2       0.50041    0.05941    0.41712   1.00
H2       0.55451    0.04007    0.43151   1.00
C4       0.30540    0.12802    0.04873   1.00
C4       0.35583    0.15114    0.03308   1.00
C3       0.26807    0.05925    0.05539   1.00
C3       0.36954    0.10686    0.02129   1.00
C3       0.29027    0.17570    0.05814   1.00
C3       0.39524    0.22240    0.02887   1.00
C2       0.20182    0.08468    0.07976   1.00
C2       0.45762    0.20171    0.00139   1.00
C3       0.21744    0.03805    0.07039   1.00
C3       0.41946    0.13147    0.00601   1.00
C3       0.23990    0.15354    0.07351   1.00
C3       0.44325    0.24586    0.01283   1.00
H1       0.27674    0.02259    0.04958   1.00
H1       0.34337    0.05541    0.02337   1.00
C5       0.32575    0.24524    0.05219   1.00
C5       0.38620    0.26986    0.04054   1.00
H1       0.19176    -0.01244   0.07449   1.00
H1       0.42757    0.09714    -0.00191   1.00
H1       0.23093    0.18866    0.08052   1.00
H1       0.46793    0.29650    0.00915   1.00
O3       0.30341    0.28848    0.05878   1.00
O3       0.43238    0.33897    0.03949   1.00
Si1      0.25112    0.30077    0.04473   1.00
Si1      0.50060    0.37061    0.05363   1.00
C6       0.23380    0.34807    0.06265   1.00
C6       0.29827    0.35208    0.02405   1.00
C6       0.17632    0.22446    0.03813   1.00
C6       0.51359    0.31416    0.06902   1.00
C6       0.56715    0.40952    0.03592   1.00
C6       0.50103    0.43524    0.06861   1.00
C6       0.21610    0.31758    0.08462   1.00
H2       0.28315    0.39474    0.06398   1.00
C6       0.18110    0.37207    0.05793   1.00
H2       0.34995    0.37872    0.03018   1.00
C6       0.30227    0.31613    0.00426   1.00
C6       0.28382    0.40932    0.01664   1.00
H2       0.16052    0.19805    0.05270   1.00
C6       0.11432    0.23063    0.03027   1.00
C6       0.18086    0.17349    0.02289   1.00
C6       0.45686    0.26916    0.08467   1.00
C6       0.53717    0.26659    0.05903   1.00
H2       0.55745    0.34920    0.07817   1.00
H2       0.56579    0.36665    0.02794   1.00
C6       0.55838    0.45333    0.01909   1.00
C6       0.64120    0.45346    0.04440   1.00
H2       0.52113    0.47926    0.05849   1.00
C6       0.43005    0.42340    0.07550   1.00
C6       0.54755    0.45955    0.08792   1.00
H2       0.25602    0.30897    0.09072   1.00
H2       0.16815    0.26900    0.08485   1.00
H2       0.21126    0.35236    0.09509   1.00
H2       0.19708    0.42116    0.06523   1.00
H2       0.17587    0.37834    0.04181   1.00
H2       0.13030    0.33662    0.06379   1.00
H2       0.34372    0.35220    -0.00551   1.00
H2       0.31269    0.27507    0.00747   1.00
H2       0.25507    0.29551    -0.00445   1.00
H2       0.28970    0.44412    0.02893   1.00
H2       0.31984    0.44068    0.00482   1.00
H2       0.23250    0.38755    0.01033   1.00
H2       0.12913    0.26618    0.01756   1.00
H2       0.07211    0.18151    0.02523   1.00
H2       0.09309    0.24740    0.04223   1.00
H2       0.17669    0.18575    0.00713   1.00
H2       0.22776    0.17196    0.02415   1.00
H2       0.13907    0.12163    0.02566   1.00
H2       0.41609    0.22324    0.07767   1.00
H2       0.47806    0.25260    0.09685   1.00
H2       0.43435    0.29666    0.09178   1.00
H2       0.55218    0.24218    0.07066   1.00
H2       0.49694    0.22592    0.05014   1.00
H2       0.58156    0.29472    0.04928   1.00
H2       0.59579    0.46550    0.00699   1.00
H2       0.50801    0.42568    0.01204   1.00
H2       0.56522    0.50129    0.02506   1.00
H2       0.65267    0.42601    0.05590   1.00
H2       0.67858    0.46650    0.03222   1.00
H2       0.64916    0.50118    0.05097   1.00
H2       0.40327    0.37867    0.08520   1.00
H2       0.43454    0.46744    0.08367   1.00
H2       0.39831    0.41581    0.06231   1.00
H2       0.55142    0.50624    0.09405   1.00
H2       0.52723    0.42103    0.09989   1.00
H2       0.59935    0.47109    0.08451   1.00
C4       0.82274    0.69536    0.04851   1.00
C4       0.79557    0.64483    0.03289   1.00
C3       0.79850    0.74109    0.05264   1.00
C3       0.74585    0.63908    0.01867   1.00
C3       0.87795    0.70168    0.06058   1.00
C3       0.81887    0.59695    0.03125   1.00
C2       0.88264    0.79837    0.07971   1.00
C2       0.74431    0.54219    0.00144   1.00
C3       0.82784    0.79143    0.06772   1.00
C3       0.72043    0.58880    0.00349   1.00
C3       0.90600    0.75197    0.07598   1.00
C3       0.79476    0.54854    0.01532   1.00
H1       0.75865    0.73900    0.04485   1.00
H1       0.72695    0.67152    0.01884   1.00
C5       0.90458    0.65753    0.05725   1.00
C5       0.86651    0.59794    0.04539   1.00
H1       0.80849    0.82339    0.06992   1.00
H1       0.68408    0.58669    -0.00626   1.00
H1       0.94432    0.75466    0.08489   1.00
H1       0.81514    0.51749    0.01357   1.00
O3       0.96461    0.67094    0.06649   1.00
O3       0.87942    0.54448    0.04660   1.00
Si1      1.03692    0.71535    0.05453   1.00
Si1      0.82937    0.47830    0.06043   1.00
C6       1.09084    0.72425    0.07506   1.00
C6       1.04046    0.66277    0.03542   1.00
C6       1.05110    0.79544    0.04612   1.00
C6       0.75902    0.47695    0.07251   1.00
C6       0.79992    0.41041    0.04314   1.00
C6       0.88098    0.46804    0.07845   1.00
C6       1.07398    0.74676    0.09573   1.00
H2       1.07937    0.67183    0.07743   1.00
C6       1.17048    0.76767    0.07293   1.00
H2       1.00670    0.61190    0.04148   1.00
C6       1.01164    0.66391    0.01394   1.00
C6       1.10999    0.66581    0.03129   1.00
H2       1.03872    0.81509    0.05963   1.00
C6       1.12592    0.85006    0.04024   1.00
C6       1.00653    0.79891    0.02839   1.00
C6       0.77331    0.53684    0.08722   1.00
C6       0.69509    0.46293    0.05966   1.00
H2       0.73998    0.43195    0.08218   1.00
H2       0.76609    0.41831    0.03314   1.00
C6       0.85501    0.40996    0.02888   1.00
C6       0.75684    0.33653    0.05181   1.00
H2       0.90281    0.44183    0.07011   1.00
C6       0.94358    0.53473    0.08649   1.00
C6       0.84556    0.42306    0.09757   1.00
H2       1.02126    0.71244    0.10032   1.00
H2       1.08165    0.79833    0.09477   1.00
H2       1.10625    0.74599    0.10795   1.00
H2       1.19452    0.74544    0.08218   1.00
H2       1.18791    0.77034    0.05742   1.00
H2       1.19077    0.81997    0.07826   1.00
H2       1.00341    0.61972    0.00501   1.00
H2       0.96252    0.66155    0.01481   1.00
H2       1.04700    0.70956    0.00551   1.00
H2       1.13010    0.65543    0.04504   1.00
H2       1.10414    0.62719    0.02024   1.00
H2       1.14779    0.71552    0.02529   1.00
H2       1.14682    0.82990    0.02905   1.00
H2       1.12901    0.89619    0.03389   1.00
H2       1.15901    0.86724    0.05345   1.00
H2       1.02804    0.79964    0.01351   1.00
H2       0.95454    0.75677    0.02836   1.00
H2       1.00368    0.84560    0.02962   1.00
H2       0.77848    0.58100    0.07905   1.00
H2       0.73113    0.52118    0.09790   1.00
H2       0.81925    0.55307    0.09619   1.00
H2       0.65270    0.45415    0.06957   1.00
H2       0.70511    0.50560    0.04987   1.00
H2       0.67660    0.41741    0.05028   1.00
H2       0.83060    0.37327    0.01655   1.00
H2       0.88681    0.45975    0.02182   1.00
H2       0.88833    0.39612    0.03700   1.00
H2       0.71556    0.33146    0.06153   1.00
H2       0.73326    0.29973    0.03946   1.00
H2       0.78850    0.32174    0.06048   1.00
H2       0.92841    0.56708    0.09455   1.00
H2       0.97504    0.52381    0.09665   1.00
H2       0.97580    0.56392    0.07388   1.00
H2       0.88084    0.41212    0.10587   1.00
H2       0.82817    0.44866    0.10802   1.00
H2       0.80185    0.37400    0.09345   1.00
C4       -0.12850   0.17195    0.04721   1.00
C4       -0.15282   0.19933    0.03193   1.00
C3       -0.10970   0.12187    0.04331   1.00
C3       -0.16665   0.17497    0.01165   1.00
C3       -0.12345   0.19479    0.06765   1.00
C3       -0.16400   0.25426    0.03699   1.00
C2       -0.08299   0.11667    0.07913   1.00
C2       -0.20340   0.25638    0.00202   1.00
C3       -0.08794   0.09468    0.05884   1.00
C3       -0.19064   0.20311    -0.00295   1.00
C3       -0.10017   0.16766    0.08304   1.00
C3       -0.19095   0.27992    0.02229   1.00
H1       -0.11104   0.10385    0.02907   1.00
H1       -0.16012   0.13580    0.00692   1.00
C5       -0.14142   0.24479    0.07258   1.00
C5       -0.14885   0.28292    0.05673   1.00
H1       -0.07549   0.05822    0.05513   1.00
H1       -0.19919   0.18384    -0.01742   1.00
H1       -0.09501   0.18590    0.09753   1.00
H1       -0.20277   0.31625    0.02650   1.00
O3       -0.14742   0.25831    0.09262   1.00
O3       -0.14629   0.34403    0.06082   1.00
Si1      -0.22172   0.21846    0.10377   1.00
Si1      -0.07570   0.41516    0.05633   1.00
C6       -0.19283   0.24793    0.12859   1.00
C6       -0.27098   0.25266    0.09418   1.00
C6       -0.26071   0.12881    0.10230   1.00
C6       -0.00658   0.41056    0.04558   1.00
C6       -0.10166   0.45819    0.03961   1.00
C6       -0.05056   0.46120    0.07926   1.00
C6       -0.12934   0.24328    0.13585   1.00
H2       -0.17490   0.30239    0.12726   1.00
C6       -0.24343   0.22247    0.14705   1.00
H2       -0.23174   0.30343    0.08936   1.00
C6       -0.31621   0.21866    0.07502   1.00
C6       -0.31775   0.26440    0.10916   1.00
H2       -0.21906   0.12021    0.10668   1.00
C6       -0.32052   0.08592    0.11741   1.00
C6       -0.28787   0.09222    0.08130   1.00
C6       0.02068    0.36866    0.05712   1.00
C6       -0.00858   0.39244    0.02257   1.00
H2       0.03463    0.46347    0.04641   1.00
H2       -0.11321   0.42886    0.02559   1.00
C6       -0.16892   0.45787    0.04536   1.00
C6       -0.04805   0.53345    0.03402   1.00
H2       -0.08190   0.48529    0.08014   1.00
C6       -0.06683   0.41819    0.09907   1.00
C6       0.02513    0.52032    0.08129   1.00
H2       -0.08642   0.26964    0.12543   1.00
H2       -0.14134   0.19027    0.13703   1.00
H2       -0.11160   0.26724    0.15070   1.00
H2       -0.22748   0.26321    0.15828   1.00
H2       -0.29554   0.20679    0.14272   1.00
H2       -0.24441   0.17947    0.15487   1.00
H2       -0.33217   0.25243    0.06816   1.00
H2       -0.28882   0.20825    0.06330   1.00
H2       -0.36227   0.17110    0.07894   1.00
H2       -0.28862   0.29675    0.12187   1.00
H2       -0.34139   0.29055    0.10168   1.00
H2       -0.35873   0.21605    0.11502   1.00
H2       -0.35995   0.10014    0.11645   1.00
H2       -0.34460   0.03113    0.11447   1.00
H2       -0.30232   0.09243    0.13295   1.00
H2       -0.34007   0.08046    0.07835   1.00
H2       -0.25731   0.12168    0.06851   1.00
H2       -0.28797   0.04386    0.08111   1.00
H2       -0.00928   0.31443    0.05368   1.00
H2       0.07324    0.38543    0.05265   1.00
H2       0.02074    0.37493    0.07349   1.00
H2       0.04120    0.40103    0.01759   1.00
H2       -0.04535   0.33927    0.01943   1.00
H2       -0.02049   0.42418    0.01290   1.00
H2       -0.18695   0.47529    0.03255   1.00
H2       -0.20981   0.40654    0.04914   1.00
H2       -0.16167   0.49113    0.05823   1.00
H2       0.00026    0.53826    0.02920   1.00
H2       -0.06656   0.55120    0.02140   1.00
H2       -0.03833   0.56787    0.04679   1.00
H2       -0.04025   0.38922    0.09967   1.00
H2       -0.05330   0.45020    0.11260   1.00
H2       -0.12115   0.38221    0.09993   1.00
H2       0.03156    0.55128    0.09474   1.00
H2       0.06017    0.50054    0.08270   1.00
H2       0.04090    0.55467    0.06830   1.00
C4       0.53940    1.03229    0.88075   1.00
C4       0.51599    0.98013    0.86562   1.00
C3       0.60932    1.07624    0.88541   1.00
C3       0.55961    0.96264    0.85497   1.00
C3       0.49057    1.04076    0.89216   1.00
C3       0.44514    0.94313    0.86068   1.00
C2       0.58247    1.13427    0.91226   1.00
C2       0.46448    0.87295    0.83555   1.00
C3       0.63029    1.12557    0.90081   1.00
C3       0.53470    0.91097    0.84021   1.00
C3       0.51283    1.09168    0.90737   1.00
C3       0.42068    0.88930    0.84639   1.00
H1       0.64707    1.07385    0.87772   1.00
H1       0.61069    0.98663    0.85770   1.00
C5       0.41986    0.99851    0.88825   1.00
C5       0.39895    0.95953    0.87014   1.00
H1       0.68154    1.15556    0.90360   1.00
H1       0.56870    0.90094    0.83287   1.00
H1       0.47732    1.09843    0.91505   1.00
H1       0.36931    0.86044    0.84398   1.00
O3       0.37284    0.99901    0.90142   1.00
O3       0.33345    0.93417    0.86282   1.00
Si1      0.34189    0.94342    0.91983   1.00
Si1      0.32055    0.97435    0.84435   1.00
C6       0.29767    0.97848    0.93240   1.00
C6       0.28495    0.86369    0.90895   1.00
C6       0.40539    0.94409    0.93553   1.00
C6       0.39181    1.04702    0.83396   1.00
C6       0.28226    0.91137    0.82556   1.00
C6       0.25964    0.99542    0.85286   1.00
C6       0.33877    1.05754    0.93591   1.00
H2       0.25806    0.97002    0.92143   1.00
C6       0.25918    0.94743    0.95289   1.00
H2       0.26984    0.87866    0.89502   1.00
C6       0.31344    0.81652    0.90215   1.00
C6       0.21689    0.81556    0.92036   1.00
H2       0.43848    0.99852    0.93848   1.00
C6       0.38246    0.90919    0.95683   1.00
C6       0.45250    0.91731    0.92698   1.00
C6       0.43742    1.10723    0.84857   1.00
C6       0.44187    1.03776    0.81966   1.00
H2       0.36783    1.06710    0.82386   1.00
H2       0.32351    0.90339    0.82039   1.00
C6       0.22455    0.83977    0.83291   1.00
C6       0.25426    0.92952    0.80629   1.00
H2       0.21097    0.94843    0.85083   1.00
C6       0.26223    1.01296    0.87582   1.00
C6       0.25317    1.05206    0.84112   1.00
H2       0.35905    1.08515    0.92170   1.00
H2       0.38152    1.07184    0.94627   1.00
H2       0.30631    1.07581    0.94234   1.00
H2       0.21375    0.95258    0.95383   1.00
H2       0.24270    0.89362    0.95453   1.00
H2       0.29040    0.97375    0.96611   1.00
H2       0.27761    0.77648    0.89195   1.00
H2       0.36112    0.84443    0.89382   1.00
H2       0.32158    0.79158    0.91515   1.00
H2       0.18749    0.84089    0.92327   1.00
H2       0.18393    0.77031    0.91133   1.00
H2       0.22677    0.79813    0.93475   1.00
H2       0.34041    0.85681    0.95542   1.00
H2       0.42405    0.90786    0.96488   1.00
H2       0.36688    0.93734    0.96671   1.00
H2       0.43003    0.86237    0.92901   1.00
H2       0.46395    0.92772    0.91099   1.00
H2       0.50136    0.94168    0.93499   1.00
H2       0.47481    1.09865    0.85642   1.00
H2       0.46587    1.15478    0.84006   1.00
H2       0.40748    1.11565    0.85991   1.00
H2       0.47721    1.08598    0.81227   1.00
H2       0.47271    1.02118    0.82786   1.00
H2       0.41511    1.00135    0.80751   1.00
H2       0.21223    0.80153    0.82106   1.00
H2       0.24050    0.82249    0.84622   1.00
H2       0.17783    0.84008    0.83674   1.00
H2       0.29211    0.97812    0.79972   1.00
H2       0.24098    0.89071    0.79455   1.00
H2       0.20835    0.93195    0.80974   1.00
H2       0.31014    1.05810    0.88000   1.00
H2       0.22045    1.02145    0.88009   1.00
H2       0.25702    0.97066    0.88492   1.00
H2       0.20732    1.05301    0.84581   1.00
H2       0.29693    1.10262    0.84399   1.00
H2       0.24906    1.04317    0.82480   1.00
C4       -0.02553   0.50648    0.88266   1.00
C4       0.02499    0.53367    0.86703   1.00
C3       -0.02303   0.46808    0.89933   1.00
C3       0.07956    0.51996    0.86552   1.00
C3       -0.08251   0.51709    0.88156   1.00
C3       0.02142    0.57720    0.85202   1.00
C2       -0.13145   0.45036    0.91310   1.00
C2       0.12423    0.58935    0.83471   1.00
C3       -0.07469   0.44045    0.91407   1.00
C3       0.12820    0.54753    0.84991   1.00
C3       -0.13344   0.48987    0.89679   1.00
C3       0.06924    0.60208    0.83593   1.00
H1       0.01651    0.45926    0.90128   1.00
H1       0.08534    0.48922    0.87562   1.00
C5       -0.08809   0.55505    0.86529   1.00
C5       -0.03011   0.59522    0.85301   1.00
H1       -0.07039   0.41269    0.92570   1.00
H1       0.16689    0.53635    0.84968   1.00
H1       -0.17304   0.49950    0.89610   1.00
H1       0.06344    0.62958    0.82460   1.00
O3       -0.14810   0.55556    0.86241   1.00
O3       -0.02669   0.64731    0.84121   1.00
Si1      -0.20588   0.50062    0.84698   1.00
Si1      0.01774    0.72562    0.84938   1.00
C6       -0.27073   0.51939    0.85295   1.00
C6       -0.17565   0.52611    0.82205   1.00
C6       -0.23108   0.41514    0.85284   1.00
C6       0.06193    0.74031    0.87261   1.00
C6       0.07647    0.76697    0.82970   1.00
C6       -0.03758   0.75919    0.85035   1.00
C6       -0.28365   0.52378    0.87612   1.00
H2       -0.24948   0.57135    0.84722   1.00
C6       -0.34352   0.47791    0.84318   1.00
H2       -0.14081   0.58070    0.82394   1.00
C6       -0.13246   0.49735    0.81210   1.00
C6       -0.22737   0.51982    0.80526   1.00
H2       -0.23981   0.41333    0.86919   1.00
C6       -0.29953   0.35829    0.84336   1.00
C6       -0.17972   0.38849    0.84937   1.00
C6       0.01988    0.70284    0.89195   1.00
C6       0.12868    0.73575    0.87347   1.00
H2       0.08006    0.79427    0.87529   1.00
H2       0.11064    0.74614    0.83065   1.00
C6       0.04690    0.75086    0.80764   1.00
C6       0.12250    0.84622    0.83113   1.00
H2       -0.03949   0.77390    0.83470   1.00
C6       -0.11319   0.70818    0.85607   1.00
C6       -0.01568   0.82460    0.86346   1.00
H2       -0.23699   0.56048    0.88392   1.00
H2       -0.30303   0.47430    0.88353   1.00
H2       -0.32071   0.54065    0.87850   1.00
H2       -0.36529   0.51102    0.84099   1.00
H2       -0.34302   0.45635    0.82850   1.00
H2       -0.37915   0.43596    0.85285   1.00
H2       -0.10511   0.52745    0.79879   1.00
H2       -0.09389   0.49943    0.82239   1.00
H2       -0.16483   0.44473    0.80712   1.00
H2       -0.25366   0.54734    0.80947   1.00
H2       -0.20139   0.54208    0.79092   1.00
H2       -0.26513   0.46650    0.80237   1.00
H2       -0.29964   0.36370    0.82690   1.00
H2       -0.30859   0.30703    0.84665   1.00
H2       -0.34317   0.35956    0.84969   1.00
H2       -0.18252   0.36966    0.83396   1.00
H2       -0.12702   0.42675    0.85208   1.00
H2       -0.19159   0.34609    0.85966   1.00
H2       0.01148    0.65121    0.89309   1.00
H2       0.04717    0.72993    0.90566   1.00
H2       -0.02953   0.70001    0.89230   1.00
H2       0.15498    0.75538    0.88794   1.00
H2       0.11844    0.68358    0.87211   1.00
H2       0.16493    0.76628    0.86168   1.00
H2       0.08823    0.76925    0.79652   1.00
H2       0.01487    0.69599    0.80520   1.00
H2       0.01659    0.77491    0.80428   1.00
H2       0.14707    0.86216    0.84593   1.00
H2       0.16323    0.86470    0.81980   1.00
H2       0.09323    0.87180    0.82835   1.00
H2       -0.11796   0.68752    0.87130   1.00
H2       -0.14481   0.73199    0.85516   1.00
H2       -0.13449   0.66572    0.84551   1.00
H2       -0.04852   0.84618    0.86037   1.00
H2       -0.01913   0.81323    0.87967   1.00
H2       0.03637    0.86443    0.86012   1.00
C4       0.49449    0.46872    0.88258   1.00
C4       0.46716    0.49181    0.86693   1.00
C3       0.54250    0.51262    0.89718   1.00
C3       0.48966    0.56167    0.86318   1.00
C3       0.47382    0.39802    0.88364   1.00
C3       0.41421    0.44283    0.85424   1.00
C2       0.54993    0.41857    0.91313   1.00
C2       0.41036    0.53448    0.83468   1.00
C3       0.56977    0.48836    0.91196   1.00
C3       0.46163    0.58243    0.84763   1.00
C3       0.50097    0.37435    0.89891   1.00
C3       0.38871    0.46493    0.83811   1.00
H1       0.55889    0.56348    0.89754   1.00
H1       0.52736    0.59955    0.87156   1.00
C5       0.42596    0.35138    0.86951   1.00
C5       0.38738    0.37212    0.85758   1.00
H1       0.60470    0.52258    0.92203   1.00
H1       0.47949    0.63361    0.84574   1.00
H1       0.48424    0.32323    0.89984   1.00
H1       0.35395    0.42946    0.82836   1.00
O3       0.41480    0.28581    0.86843   1.00
O3       0.32777    0.32419    0.84828   1.00
Si1      0.45771    0.26738    0.85221   1.00
Si1      0.25496    0.30445    0.85880   1.00
C6       0.43005    0.18382    0.86091   1.00
C6       0.42516    0.26663    0.82786   1.00
C6       0.54692    0.31972    0.85468   1.00
C6       0.25585    0.34773    0.88122   1.00
C6       0.21221    0.32193    0.83958   1.00
C6       0.21102    0.21572    0.86297   1.00
C6       0.43287    0.17547    0.88444   1.00
H2       0.37587    0.15746    0.85709   1.00
C6       0.45864    0.13959    0.85138   1.00
H2       0.37346    0.25546    0.83133   1.00
C6       0.45841    0.33449    0.81539   1.00
C6       0.41682    0.21039    0.81245   1.00
H2       0.55418    0.31864    0.87104   1.00
C6       0.59263    0.29404    0.84457   1.00
C6       0.58186    0.39699    0.84848   1.00
C6       0.29696    0.34439    0.89981   1.00
C6       0.27154    0.42331    0.87991   1.00
H2       0.20250    0.31962    0.88591   1.00
H2       0.24009    0.37745    0.83854   1.00
C6       0.21561    0.29599    0.81783   1.00
C6       0.13589    0.30034    0.84344   1.00
H2       0.18868    0.19415    0.84823   1.00
C6       0.25564    0.18330    0.86841   1.00
C6       0.15040    0.18557    0.87844   1.00
H2       0.40444    0.19535    0.89255   1.00
H2       0.48540    0.20227    0.88998   1.00
H2       0.41011    0.12178    0.88867   1.00
H2       0.41915    0.08574    0.85143   1.00
H2       0.47557    0.15357    0.83580   1.00
H2       0.50155    0.14322    0.85999   1.00
H2       0.42528    0.33121    0.80285   1.00
H2       0.46649    0.37788    0.82455   1.00
H2       0.50714    0.34527    0.80889   1.00
H2       0.38520    0.15934    0.81869   1.00
H2       0.39139    0.21228    0.79856   1.00
H2       0.46631    0.21690    0.80814   1.00
H2       0.58010    0.28242    0.82854   1.00
H2       0.64697    0.33178    0.84565   1.00
H2       0.58701    0.24895    0.85217   1.00
H2       0.59509    0.40472    0.83240   1.00
H2       0.55063    0.41987    0.85146   1.00
H2       0.62924    0.42662    0.85699   1.00
H2       0.35093    0.38230    0.89872   1.00
H2       0.27812    0.35466    0.91388   1.00
H2       0.29234    0.29442    0.90145   1.00
H2       0.26077    0.43952    0.89441   1.00
H2       0.32476    0.45873    0.87638   1.00
H2       0.23998    0.42974    0.86863   1.00
H2       0.19802    0.31902    0.80650   1.00
H2       0.26783    0.31018    0.81373   1.00
H2       0.18393    0.24073    0.81653   1.00
H2       0.12890    0.31818    0.85813   1.00
H2       0.11802    0.32256    0.83191   1.00
H2       0.10299    0.24503    0.84275   1.00
H2       0.28308    0.20293    0.88265   1.00
H2       0.22502    0.12783    0.86957   1.00
H2       0.29304    0.19450    0.85655   1.00
H2       0.12106    0.12994    0.87737   1.00
H2       0.16859    0.19866    0.89405   1.00
H2       0.11493    0.20389    0.87551   1.00
C4       0.36455    0.20669    0.28557   1.00
C4       0.31240    0.18285    0.30071   1.00
C3       0.39205    0.27131    0.27600   1.00
C3       0.27825    0.21850    0.30645   1.00
C3       0.39031    0.16350    0.27931   1.00
C3       0.29295    0.12001    0.31083   1.00
C2       0.46752    0.24978    0.25436   1.00
C2       0.20638    0.13049    0.33115   1.00
C3       0.44183    0.29215    0.26075   1.00
C3       0.22714    0.19339    0.32138   1.00
C3       0.44145    0.18598    0.26416   1.00
C3       0.23932    0.09418    0.32521   1.00
H1       0.37688    0.30523    0.27988   1.00
H1       0.28919    0.26353    0.29986   1.00
C5       0.36502    0.09826    0.28827   1.00
C5       0.32660    0.08294    0.30645   1.00
H1       0.45945    0.33925    0.25427   1.00
H1       0.20462    0.22165    0.32503   1.00
H1       0.46079    0.15524    0.26022   1.00
H1       0.22304    0.04708    0.33137   1.00
O3       0.38141    0.05251    0.27992   1.00
O3       0.31832    0.02982    0.31873   1.00
Si1      0.33035    -0.00340   0.26337   1.00
Si1      0.36596    0.04707    0.33889   1.00
C6       0.38451    -0.03514   0.25636   1.00
C6       0.25825    -0.06524   0.27666   1.00
C6       0.31228    0.03373    0.24247   1.00
C6       0.42404    0.13351    0.34455   1.00
C6       0.30611    0.01099    0.35858   1.00
C6       0.40941    0.00095    0.33691   1.00
C6       0.46032    0.01986    0.25160   1.00
H2       0.38670    -0.06007   0.27029   1.00
C6       0.36346    -0.09027   0.23924   1.00
H2       0.27871    -0.06143   0.29189   1.00
C6       0.19593    -0.05389   0.27918   1.00
C6       0.22670    -0.14188   0.27045   1.00
H2       0.36298    0.07487    0.23823   1.00
C6       0.28206    -0.01135   0.22302   1.00
C6       0.26677    0.06740    0.24558   1.00
C6       0.47816    0.17741    0.32812   1.00
C6       0.39678    0.17953    0.35345   1.00
H2       0.45331    0.12933    0.35706   1.00
H2       0.28377    0.04385    0.35955   1.00
C6       0.24472    -0.06243   0.35464   1.00
C6       0.33378    0.00997    0.38023   1.00
H2       0.37201    -0.05036   0.34190   1.00
C6       0.42998    -0.00848   0.31509   1.00
C6       0.47396    0.02351    0.35049   1.00
H2       0.48374    0.05520    0.26425   1.00
H2       0.46363    0.04961    0.23815   1.00
H2       0.49150    -0.00380   0.24893   1.00
H2       0.38363    -0.12410   0.24264   1.00
H2       0.30855    -0.12191   0.23755   1.00
H2       0.38409    -0.06755   0.22445   1.00
H2       0.16164    -0.08694   0.29107   1.00
H2       0.21149    -0.00187   0.28367   1.00
H2       0.16643    -0.06564   0.26518   1.00
H2       0.26455    -0.15822   0.27111   1.00
H2       0.18576    -0.17532   0.28081   1.00
H2       0.20517    -0.15085   0.25519   1.00
H2       0.23658    -0.05984   0.22665   1.00
H2       0.26807    0.01405    0.21142   1.00
H2       0.31924    -0.02140   0.21578   1.00
H2       0.21252    0.03050    0.24404   1.00
H2       0.27360    0.09161    0.26023   1.00
H2       0.27926    0.10691    0.23413   1.00
H2       0.45736    0.19735    0.31689   1.00
H2       0.52177    0.22132    0.33514   1.00
H2       0.49790    0.14874    0.32020   1.00
H2       0.43905    0.22812    0.35878   1.00
H2       0.36912    0.19155    0.34224   1.00
H2       0.36354    0.15610    0.36650   1.00
H2       0.20490    -0.07562   0.36603   1.00
H2       0.22136    -0.06589   0.33986   1.00
H2       0.26010    -0.10101   0.35525   1.00
H2       0.37575    0.05998    0.38456   1.00
H2       0.29364    -0.00423   0.39159   1.00
H2       0.35125    -0.02701   0.38119   1.00
H2       0.46571    0.04003    0.30804   1.00
H2       0.45299    -0.04091   0.31506   1.00
H2       0.38496    -0.03328   0.30555   1.00
H2       0.48985    -0.01483   0.35021   1.00
H2       0.51698    0.07162    0.34524   1.00
H2       0.46406    0.02966    0.36631   1.00
C4       0.83830    0.63372    0.28614   1.00
C4       0.86742    0.68572    0.30131   1.00
C3       0.84436    0.57427    0.28627   1.00
C3       0.91061    0.68654    0.31706   1.00
C3       0.80185    0.64157    0.26967   1.00
C3       0.85279    0.74015    0.30091   1.00
C2       0.78085    0.53257    0.25437   1.00
C2       0.92554    0.79353    0.33114   1.00
C3       0.81678    0.52526    0.27078   1.00
C3       0.93837    0.73860    0.33168   1.00
C3       0.77331    0.59091    0.25439   1.00
C3       0.88362    0.79363    0.31527   1.00
H1       0.86879    0.56472    0.29768   1.00
H1       0.92351    0.64957    0.31829   1.00
C5       0.79390    0.69980    0.26863   1.00
C5       0.80802    0.74133    0.28610   1.00
H1       0.82320    0.48354    0.27160   1.00
H1       0.96879    0.73622    0.34282   1.00
H1       0.74569    0.59629    0.24297   1.00
H1       0.87614    0.83442    0.31399   1.00
O3       0.76892    0.71285    0.25118   1.00
O3       0.78263    0.78536    0.28781   1.00
Si1      0.82170    0.76286    0.23382   1.00
Si1      0.71477    0.76256    0.30161   1.00
C6       0.76009    0.74815    0.21510   1.00
C6       0.86000    0.84701    0.24313   1.00
C6       0.87928    0.73692    0.22541   1.00
C6       0.67865    0.68355    0.31447   1.00
C6       0.74221    0.82893    0.31938   1.00
C6       0.65336    0.76542    0.28589   1.00
C6       0.70536    0.67160    0.21120   1.00
H2       0.73218    0.77085    0.22195   1.00
C6       0.78178    0.78121    0.19348   1.00
H2       0.82186    0.84362    0.25391   1.00
C6       0.92787    0.87534    0.25546   1.00
C6       0.87210    0.90558    0.22813   1.00
H2       0.84552    0.68244    0.22272   1.00
C6       0.91723    0.76741    0.20487   1.00
C6       0.93690    0.74330    0.24009   1.00
C6       0.65648    0.61770    0.30162   1.00
C6       0.71470    0.67652    0.33386   1.00
H2       0.63127    0.67842    0.32037   1.00
H2       0.77729    0.82197    0.32908   1.00
C6       0.78476    0.90307    0.31075   1.00
C6       0.68708    0.82869    0.33372   1.00
H2       0.66820    0.81930    0.28563   1.00
C6       0.65323    0.74587    0.26321   1.00
C6       0.57710    0.72611    0.29294   1.00
H2       0.67891    0.64617    0.22516   1.00
H2       0.72865    0.64340    0.20490   1.00
H2       0.66628    0.66723    0.20058   1.00
H2       0.74357    0.79274    0.18755   1.00
H2       0.83049    0.82845    0.19349   1.00
H2       0.78550    0.74703    0.18252   1.00
H2       0.93823    0.92114    0.26389   1.00
H2       0.92558    0.83890    0.26663   1.00
H2       0.97125    0.88911    0.24544   1.00
H2       0.82478    0.89543    0.22076   1.00
H2       0.89119    0.95419    0.23608   1.00
H2       0.90948    0.91261    0.21652   1.00
H2       0.94335    0.82306    0.20504   1.00
H2       0.95521    0.75228    0.20160   1.00
H2       0.88217    0.74875    0.19213   1.00
H2       0.98276    0.79342    0.23918   1.00
H2       0.92166    0.73470    0.25588   1.00
H2       0.95173    0.70566    0.23605   1.00
H2       0.69924    0.60972    0.29855   1.00
H2       0.61824    0.57267    0.30978   1.00
H2       0.63384    0.61906    0.28719   1.00
H2       0.68162    0.62834    0.34163   1.00
H2       0.76180    0.67696    0.33027   1.00
H2       0.72621    0.71678    0.34488   1.00
H2       0.80908    0.93968    0.32310   1.00
H2       0.82561    0.90811    0.30079   1.00
H2       0.75314    0.91819    0.30223   1.00
H2       0.65603    0.77917    0.34094   1.00
H2       0.71141    0.86605    0.34589   1.00
H2       0.65342    0.84196    0.32551   1.00
H2       0.64150    0.69323    0.26145   1.00
H2       0.61650    0.75282    0.25428   1.00
H2       0.70309    0.77863    0.25659   1.00
H2       0.54605    0.74024    0.28365   1.00
H2       0.55534    0.67096    0.29166   1.00
H2       0.57157    0.73800    0.30860   1.00
C4       0.79521    0.16143    0.28612   1.00
C4       0.81816    0.13236    0.30128   1.00
C3       0.72857    0.15260    0.28574   1.00
C3       0.77504    0.08658    0.31646   1.00
C3       0.84067    0.20079    0.27020   1.00
C3       0.88806    0.14974    0.30148   1.00
C2       0.75162    0.21908    0.25437   1.00
C2       0.86811    0.07453    0.33114   1.00
C3       0.70721    0.18028    0.27025   1.00
C3       0.79942    0.05894    0.33109   1.00
C3       0.81855    0.22935    0.25493   1.00
C3       0.91094    0.11906    0.31582   1.00
H1       0.69367    0.12600    0.29674   1.00
H1       0.72455    0.07164    0.31725   1.00
C5       0.90802    0.21159    0.26970   1.00
C5       0.93465    0.19711    0.28728   1.00
H1       0.65825    0.17179    0.27068   1.00
H1       0.76604    0.02657    0.34181   1.00
H1       0.85231    0.25903    0.24392   1.00
H1       0.96004    0.12864    0.31495   1.00
O3       0.94773    0.23958    0.25268   1.00
O3       1.00421    0.22479    0.28965   1.00
Si1      0.94924    0.18980    0.23502   1.00
Si1      1.04560    0.29155    0.30416   1.00
C6       0.99650    0.25409    0.21701   1.00
C6       0.99672    0.15341    0.24445   1.00
C6       0.86750    0.13079    0.22567   1.00
C6       0.99870    0.32352    0.31690   1.00
C6       1.08456    0.26453    0.32205   1.00
C6       1.11026    0.35609    0.28928   1.00
C6       0.97220    0.30700    0.21326   1.00
H2       1.04614    0.28284    0.22439   1.00
C6       1.01155    0.23577    0.19537   1.00
H2       1.02926    0.19102    0.25569   1.00
C6       0.95800    0.08403    0.25608   1.00
C6       1.04644    0.14529    0.22973   1.00
H2       0.84514    0.16314    0.22301   1.00
C6       0.86393    0.09564    0.20487   1.00
C6       0.81610    0.07065    0.23963   1.00
C6       0.95458    0.34465    0.30386   1.00
C6       0.95414    0.28430    0.33575   1.00
H2       1.03905    0.37102    0.32338   1.00
H2       1.04210    0.22735    0.33123   1.00
C6       1.11972    0.22532    0.31342   1.00
C6       1.13650    0.31924    0.33710   1.00
H2       1.15082    0.34335    0.28923   1.00
C6       1.09301    0.35783    0.26647   1.00
C6       1.14376    0.43143    0.29703   1.00
H2       0.97046    0.33136    0.22737   1.00
H2       0.92140    0.28267    0.20646   1.00
H2       1.00710    0.34787    0.20313   1.00
H2       1.06130    0.27594    0.19003   1.00
H2       1.01224    0.18814    0.19509   1.00
H2       0.97426    0.23166    0.18412   1.00
H2       0.99368    0.07456    0.26471   1.00
H2       0.92175    0.08354    0.26701   1.00
H2       0.93086    0.04146    0.24561   1.00
H2       1.08310    0.19395    0.22291   1.00
H2       1.07653    0.12708    0.23778   1.00
H2       1.01844    0.10870    0.21769   1.00
H2       0.89525    0.07142    0.20511   1.00
H2       0.81179    0.05656    0.20099   1.00
H2       0.88055    0.13200    0.19246   1.00
H2       0.82261    0.02615    0.23849   1.00
H2       0.82040    0.08411    0.25554   1.00
H2       0.76364    0.05429    0.23511   1.00
H2       0.90504    0.30098    0.30017   1.00
H2       0.94499    0.38080    0.31218   1.00
H2       0.97971    0.36940    0.28975   1.00
H2       0.93634    0.31509    0.34359   1.00
H2       0.90902    0.23663    0.33155   1.00
H2       0.98275    0.27313    0.34691   1.00
H2       1.13196    0.20077    0.32571   1.00
H2       1.08612    0.18493    0.30297   1.00
H2       1.16699    0.25920    0.30544   1.00
H2       1.11542    0.34796    0.34436   1.00
H2       1.14952    0.29473    0.34922   1.00
H2       1.18384    0.35508    0.32944   1.00
H2       1.05090    0.36766    0.26448   1.00
H2       1.13697    0.39661    0.25809   1.00
H2       1.07855    0.30910    0.25944   1.00
H2       1.18956    0.46477    0.28826   1.00
H2       1.10883    0.45134    0.29563   1.00
H2       1.15951    0.43589    0.31284   1.00
C4       0.79702    0.64037    0.78415   1.00
C4       0.81951    0.69074    0.79980   1.00
C3       0.74225    0.62597    0.77078   1.00
C3       0.78566    0.72727    0.80485   1.00
C3       0.83009    0.60117    0.78178   1.00
C3       0.87923    0.70604    0.81113   1.00
C2       0.75240    0.53537    0.75353   1.00
C2       0.86733    0.79073    0.83198   1.00
C3       0.72027    0.57467    0.75597   1.00
C3       0.80924    0.77635    0.82037   1.00
C3       0.80797    0.55052    0.76649   1.00
C3       0.90046    0.75356    0.82727   1.00
H1       0.71687    0.65248    0.77138   1.00
H1       0.74263    0.71900    0.79749   1.00
C5       0.88521    0.61303    0.79463   1.00
C5       0.91714    0.67350    0.80642   1.00
H1       0.68006    0.56620    0.74684   1.00
H1       0.78304    0.80160    0.82323   1.00
H1       0.83340    0.52412    0.76460   1.00
H1       0.94072    0.76075    0.83607   1.00
O3       0.90939    0.56798    0.79459   1.00
O3       0.98165    0.69691    0.81431   1.00
Si1      0.87977    0.50547    0.81094   1.00
Si1      1.04692    0.75886    0.80272   1.00
C6       0.91994    0.46248    0.80070   1.00
C6       0.91401    0.54091    0.83485   1.00
C6       0.79012    0.45378    0.81026   1.00
C6       1.03151    0.79512    0.78104   1.00
C6       1.08489    0.82123    0.82168   1.00
C6       1.10344    0.72924    0.79673   1.00
C6       0.91377    0.45154    0.77714   1.00
H2       0.97376    0.49867    0.80351   1.00
C6       0.90683    0.39291    0.80983   1.00
H2       0.96068    0.58748    0.83066   1.00
C6       0.87327    0.56419    0.84869   1.00
C6       0.93707    0.50129    0.84927   1.00
H2       0.78019    0.44452    0.79401   1.00
C6       0.75820    0.38174    0.82044   1.00
C6       0.74439    0.48327    0.81801   1.00
C6       0.99205    0.74691    0.76290   1.00
C6       1.00178    0.84402    0.78367   1.00
H2       1.08299    0.82867    0.77535   1.00
H2       1.04883    0.83932    0.82388   1.00
C6       1.09265    0.79541    0.84301   1.00
C6       1.15518    0.88555    0.81668   1.00
H2       1.13104    0.73513    0.81085   1.00
C6       1.07029    0.65212    0.79130   1.00
C6       1.15917    0.76867    0.78018   1.00
H2       0.93234    0.49971    0.76904   1.00
H2       0.86089    0.41749    0.77260   1.00
H2       0.94424    0.42939    0.77185   1.00
H2       0.95288    0.38898    0.80853   1.00
H2       0.89269    0.38702    0.82576   1.00
H2       0.86662    0.34906    0.80177   1.00
H2       0.90579    0.59778    0.86079   1.00
H2       0.85469    0.59303    0.84031   1.00
H2       0.82999    0.52060    0.85587   1.00
H2       0.97422    0.49107    0.84192   1.00
H2       0.96208    0.53103    0.86288   1.00
H2       0.89354    0.45309    0.85421   1.00
H2       0.77540    0.38565    0.83612   1.00
H2       0.70242    0.35537    0.82054   1.00
H2       0.77108    0.34831    0.81212   1.00
H2       0.73496    0.47598    0.83430   1.00
H2       0.76596    0.53724    0.81504   1.00
H2       0.69468    0.45723    0.81049   1.00
H2       0.93707    0.72116    0.76516   1.00
H2       1.00295    0.77608    0.74883   1.00
H2       1.00651    0.70828    0.76045   1.00
H2       1.00427    0.86958    0.76935   1.00
H2       0.94857    0.81697    0.78832   1.00
H2       1.03054    0.88434    0.79467   1.00
H2       1.10565    0.83498    0.85448   1.00
H2       1.04502    0.75093    0.84789   1.00
H2       1.13252    0.78175    0.84312   1.00
H2       1.15397    0.90838    0.80222   1.00
H2       1.16865    0.92472    0.82831   1.00
H2       1.19600    0.87318    0.81616   1.00
H2       1.03879    0.63897    0.77771   1.00
H2       1.10872    0.63707    0.78897   1.00
H2       1.03805    0.62138    0.80371   1.00
H2       1.19704    0.75213    0.78009   1.00
H2       1.13683    0.75987    0.76502   1.00
H2       1.18682    0.82344    0.78300   1.00
C4       0.36194    0.16511    0.78497   1.00
C4       0.31013    0.13585    0.80019   1.00
C3       0.36122    0.20639    0.76886   1.00
C3       0.24946    0.13975    0.79978   1.00
C3       0.41727    0.15186    0.78555   1.00
C3       0.31893    0.10074    0.81685   1.00
C2       0.46685    0.21961    0.75421   1.00
C2       0.20705    0.07400    0.83130   1.00
C3       0.41199    0.23259    0.75384   1.00
C3       0.19962    0.11024    0.81500   1.00
C3       0.46866    0.17982    0.77047   1.00
C3       0.26676    0.06887    0.83157   1.00
H1       0.32392    0.21882    0.76762   1.00
H1       0.23950    0.16376    0.78835   1.00
C5       0.42106    0.11101    0.80125   1.00
C5       0.37935    0.09703    0.81867   1.00
H1       0.40854    0.26170    0.74247   1.00
H1       0.15705    0.11518    0.81401   1.00
H1       0.50904    0.17144    0.77140   1.00
H1       0.27187    0.04024    0.84268   1.00
O3       0.46772    0.08901    0.79992   1.00
O3       0.39494    0.07553    0.83648   1.00
Si1      0.44516    0.01465    0.78996   1.00
Si1      0.43358    0.13091    0.85456   1.00
C6       0.52709    0.02337    0.78939   1.00
C6       0.39187    -0.04794   0.80761   1.00
C6       0.41090    0.00443    0.76531   1.00
C6       0.45104    0.21546    0.85080   1.00
C6       0.37815    0.09488    0.87527   1.00
C6       0.50944    0.13041    0.86008   1.00
C6       0.58557    0.09232    0.78061   1.00
H2       0.53869    0.02429    0.80550   1.00
C6       0.53876    -0.03351   0.77984   1.00
H2       0.40829    -0.02004   0.82191   1.00
C6       0.31323    -0.07623   0.80636   1.00
C6       0.39971    -0.11228   0.81053   1.00
H2       0.44798    0.05187    0.75792   1.00
C6       0.40729    -0.05467   0.75203   1.00
C6       0.33913    -0.00176   0.76234   1.00
C6       0.49453    0.25522    0.83191   1.00
C6       0.39157    0.23173    0.85224   1.00
H2       0.48286    0.24185    0.86390   1.00
H2       0.33415    0.09988    0.87122   1.00
C6       0.34919    0.01679    0.87884   1.00
C6       0.40339    0.13033    0.89636   1.00
H2       0.49298    0.08613    0.86992   1.00
C6       0.54541    0.11761    0.84183   1.00
C6       0.56676    0.19249    0.87199   1.00
H2       0.58894    0.13613    0.78862   1.00
H2       0.57748    0.09758    0.76452   1.00
H2       0.63525    0.09576    0.78223   1.00
H2       0.57936    -0.03631   0.78799   1.00
H2       0.49359    -0.08384   0.78041   1.00
H2       0.55485    -0.02300   0.76401   1.00
H2       0.28806    -0.10282   0.82036   1.00
H2       0.30111    -0.03573   0.80443   1.00
H2       0.29039    -0.11246   0.79389   1.00
H2       0.45193    -0.09805   0.81452   1.00
H2       0.36762    -0.14437   0.82294   1.00
H2       0.38491    -0.14355   0.79682   1.00
H2       0.38045    -0.10346   0.75998   1.00
H2       0.38110    -0.06015   0.73761   1.00
H2       0.45789    -0.04474   0.74790   1.00
H2       0.29755    -0.05433   0.76373   1.00
H2       0.32889    0.02832    0.77304   1.00
H2       0.33557    0.01583    0.74718   1.00
H2       0.46339    0.24323    0.81829   1.00
H2       0.51825    0.31022    0.83432   1.00
H2       0.53554    0.24454    0.82892   1.00
H2       0.41173    0.28686    0.85245   1.00
H2       0.35688    0.21158    0.83940   1.00
H2       0.36195    0.21186    0.86613   1.00
H2       0.30693    -0.00309   0.88967   1.00
H2       0.32910    -0.01222   0.86482   1.00
H2       0.38781    0.00612    0.88483   1.00
H2       0.42276    0.18511    0.89545   1.00
H2       0.36133    0.10970    0.90727   1.00
H2       0.44343    0.12206    0.90254   1.00
H2       0.56217    0.15757    0.83039   1.00
H2       0.58964    0.11408    0.84672   1.00
H2       0.51043    0.06950    0.83461   1.00
H2       0.60615    0.18145    0.87715   1.00
H2       0.59152    0.23815    0.86251   1.00
H2       0.54683    0.20435    0.88548   1.00
C4       0.83457    0.19706    0.78513   1.00
C4       0.86377    0.17435    0.80032   1.00
C3       0.78623    0.15309    0.77061   1.00
C3       0.85233    0.10677    0.80136   1.00
C3       0.85526    0.26776    0.78406   1.00
C3       0.90678    0.22129    0.81545   1.00
C2       0.78045    0.24748    0.75426   1.00
C2       0.92594    0.13279    0.83125   1.00
C3       0.76018    0.17761    0.75553   1.00
C3       0.88202    0.08636    0.81650   1.00
C3       0.82742    0.29128    0.76896   1.00
C3       0.93852    0.20047    0.83006   1.00
H1       0.76835    0.10192    0.77062   1.00
H1       0.82243    0.07051    0.79106   1.00
C5       0.90340    0.31445    0.79813   1.00
C5       0.91842    0.28887    0.81584   1.00
H1       0.72573    0.14348    0.74534   1.00
H1       0.87146    0.03668    0.81660   1.00
H1       0.84131    0.34182    0.76873   1.00
H1       0.97258    0.23580    0.83997   1.00
O3       0.93165    0.38355    0.79501   1.00
O3       0.94829    0.33067    0.83244   1.00
Si1      1.00401    0.42574    0.78293   1.00
Si1      0.90025    0.32549    0.85158   1.00
C6       1.00443    0.50369    0.78092   1.00
C6       1.06876    0.43313    0.79938   1.00
C6       1.00313    0.39161    0.75878   1.00
C6       0.81241    0.26429    0.85051   1.00
C6       0.93781    0.30694    0.87208   1.00
C6       0.91151    0.40748    0.85544   1.00
C6       0.93632    0.49858    0.77342   1.00
H2       1.00976    0.51998    0.79673   1.00
C6       1.06264    0.56581    0.76914   1.00
H2       1.04579    0.42891    0.81424   1.00
C6       1.08872    0.37624    0.79879   1.00
C6       1.13815    0.50196    0.79980   1.00
H2       0.95548    0.38436    0.75234   1.00
C6       1.06072    0.43858    0.74353   1.00
C6       1.00017    0.32093    0.75714   1.00
C6       0.77007    0.26737    0.83222   1.00
C6       0.78867    0.18705    0.85379   1.00
H2       0.79248    0.27729    0.86380   1.00
H2       0.92608    0.25475    0.86916   1.00
C6       1.01745    0.35000    0.87344   1.00
C6       0.91002    0.30707    0.89378   1.00
H2       0.95905    0.43425    0.86399   1.00
C6       0.92366    0.45160    0.83607   1.00
C6       0.85678    0.41385    0.86829   1.00
H2       0.89317    0.46394    0.78288   1.00
H2       0.92492    0.48026    0.75778   1.00
H2       0.93912    0.54816    0.77409   1.00
H2       1.07290    0.61363    0.77627   1.00
H2       1.11029    0.56515    0.76887   1.00
H2       1.04869    0.56814    0.75343   1.00
H2       1.11791    0.37871    0.81230   1.00
H2       1.04417    0.32533    0.79858   1.00
H2       1.12025    0.38200    0.78559   1.00
H2       1.13065    0.54494    0.80317   1.00
H2       1.17181    0.50176    0.81168   1.00
H2       1.16504    0.51119    0.78537   1.00
H2       1.11117    0.45803    0.75026   1.00
H2       1.05894    0.41168    0.72955   1.00
H2       1.05505    0.48135    0.73870   1.00
H2       1.05086    0.32638    0.75752   1.00
H2       0.97064    0.28553    0.76907   1.00
H2       0.97665    0.29622    0.74276   1.00
H2       0.77479    0.24156    0.81891   1.00
H2       0.71587    0.24205    0.83608   1.00
H2       0.78526    0.31952    0.82798   1.00
H2       0.73325    0.15719    0.85555   1.00
H2       0.80179    0.16530    0.84104   1.00
H2       0.81025    0.17856    0.86752   1.00
H2       1.03660    0.32729    0.88440   1.00
H2       1.04124    0.35147    0.85888   1.00
H2       1.03508    0.40237    0.87819   1.00
H2       0.85453    0.27636    0.89442   1.00
H2       0.93000    0.28529    0.90478   1.00
H2       0.92536    0.35876    0.89878   1.00
H2       0.88020    0.42867    0.82576   1.00
H2       0.93412    0.50292    0.83986   1.00
H2       0.96781    0.45722    0.82791   1.00
H2       0.87464    0.46712    0.87218   1.00
H2       0.80889    0.39465    0.85997   1.00
H2       0.84607    0.38601    0.88255   1.00
C4       -0.02871   0.46069    0.38183   1.00
C4       0.02182    0.48406    0.36621   1.00
C3       -0.07467   0.39072    0.38589   1.00
C3       0.02735    0.44013    0.35193   1.00
C3       -0.03479   0.50958    0.39398   1.00
C3       0.06993    0.55520    0.36465   1.00
C2       -0.13170   0.41760    0.41304   1.00
C2       0.12448    0.53545    0.33477   1.00
C3       -0.12500   0.36973    0.40098   1.00
C3       0.07765    0.46501    0.33675   1.00
C3       -0.08508   0.48735    0.40938   1.00
C3       0.11835    0.57952    0.34872   1.00
H1       -0.07277   0.35296    0.37805   1.00
H1       -0.00525   0.38882    0.35204   1.00
C5       0.00959    0.58035    0.39071   1.00
C5       0.06916    0.60180    0.37885   1.00
H1       -0.15714   0.31842    0.40313   1.00
H1       0.07959    0.43079    0.32695   1.00
H1       -0.08759   0.52296    0.41834   1.00
H1       0.14958    0.63096    0.34702   1.00
O3       -0.00357   0.62704    0.40003   1.00
O3       0.12280    0.66805    0.38012   1.00
Si1      -0.04773   0.65537    0.38814   1.00
Si1      0.18889    0.68374    0.39393   1.00
C6       -0.05640   0.70029    0.40874   1.00
C6       0.00501    0.71160    0.36907   1.00
C6       -0.12794   0.58978    0.37969   1.00
C6       0.18989    0.61440    0.40592   1.00
C6       0.25682    0.72215    0.37665   1.00
C6       0.19941    0.74548    0.41203   1.00
C6       -0.07907   0.66067    0.42937   1.00
H2       -0.00392   0.74105    0.41113   1.00
C6       -0.09954   0.73683    0.40669   1.00
H2       0.05584    0.72844    0.37513   1.00
C6       0.00375    0.68184    0.34756   1.00
C6       0.00231    0.77833    0.36505   1.00
H2       -0.14770   0.55761    0.39317   1.00
C6       -0.18232   0.61037    0.37387   1.00
C6       -0.13161   0.54187    0.36189   1.00
C6       0.12991    0.56880    0.42059   1.00
C6       0.20365    0.56447    0.39299   1.00
H2       0.23491    0.64009    0.41559   1.00
H2       0.24874    0.68048    0.36660   1.00
C6       0.25754    0.77800    0.36247   1.00
C6       0.33066    0.75257    0.38532   1.00
H2       0.22579    0.79360    0.40375   1.00
C6       0.13285    0.74159    0.42011   1.00
C6       0.24431    0.75461    0.43114   1.00
H2       -0.04492   0.64200    0.43391   1.00
H2       -0.13072   0.61693    0.42838   1.00
H2       -0.07815   0.69363    0.44163   1.00
H2       -0.07715   0.78298    0.41600   1.00
H2       -0.10212   0.75183    0.39121   1.00
H2       -0.15187   0.70493    0.41201   1.00
H2       0.04801    0.71779    0.33865   1.00
H2       0.00588    0.63495    0.34836   1.00
H2       -0.04184   0.67185    0.33914   1.00
H2       0.01280    0.80867    0.37883   1.00
H2       0.04099    0.81112    0.35401   1.00
H2       -0.04734   0.76669    0.35905   1.00
H2       -0.16200   0.65158    0.36273   1.00
H2       -0.22854   0.56754    0.36749   1.00
H2       -0.19939   0.62624    0.38711   1.00
H2       -0.13222   0.56289    0.34705   1.00
H2       -0.08962   0.53180    0.36182   1.00
H2       -0.17843   0.49243    0.36309   1.00
H2       0.08568    0.53003    0.41240   1.00
H2       0.14541    0.54201    0.43123   1.00
H2       0.11386    0.59854    0.42962   1.00
H2       0.21224    0.53061    0.40284   1.00
H2       0.16093    0.53207    0.38317   1.00
H2       0.24920    0.59146    0.38361   1.00
H2       0.29421    0.79028    0.35014   1.00
H2       0.20779    0.76029    0.35542   1.00
H2       0.27157    0.82510    0.37065   1.00
H2       0.33553    0.71612    0.39498   1.00
H2       0.36744    0.76579    0.37296   1.00
H2       0.34563    0.79894    0.39405   1.00
H2       0.10034    0.69402    0.42812   1.00
H2       0.14394    0.78389    0.43032   1.00
H2       0.10376    0.74493    0.40752   1.00
H2       0.25544    0.80078    0.43949   1.00
H2       0.21856    0.71150    0.44154   1.00
H2       0.29328    0.75977    0.42699   1.00
C4       0.48940    1.02865    0.38185   1.00
C4       0.46223    0.97813    0.36623   1.00
C3       0.46473    1.07395    0.38611   1.00
C3       0.41202    0.97198    0.35213   1.00
C3       0.54506    1.03542    0.39378   1.00
C3       0.48602    0.93067    0.36446   1.00
C2       0.54932    1.13168    0.41304   1.00
C2       0.41097    0.87554    0.33477   1.00
C3       0.49407    1.12431    0.40119   1.00
C3       0.38661    0.92171    0.33695   1.00
C3       0.57312    1.08571    0.40918   1.00
C3       0.46189    0.88229    0.34852   1.00
H1       0.42456    1.07152    0.37842   1.00
H1       0.39275    1.00410    0.35240   1.00
C5       0.57213    0.99172    0.39032   1.00
C5       0.53417    0.93207    0.37847   1.00
H1       0.47440    1.15594    0.40349   1.00
H1       0.34991    0.91930    0.32729   1.00
H1       0.61178    1.08872    0.41800   1.00
H1       0.48260    0.85156    0.34667   1.00
O3       0.63251    1.00559    0.39942   1.00
O3       0.54765    0.87897    0.37957   1.00
Si1      0.70448    1.05047    0.38734   1.00
Si1      0.49827    0.81261    0.39343   1.00
C6       0.75901    1.05978    0.40773   1.00
C6       0.70809    0.99818    0.36813   1.00
C6       0.71782    1.13034    0.37901   1.00
C6       0.42788    0.81062    0.40571   1.00
C6       0.46892    0.74479    0.37612   1.00
C6       0.55059    0.80284    0.41130   1.00
C6       0.74232    1.08202    0.42848   1.00
H2       0.74801    1.00749    0.41006   1.00
C6       0.83856    1.10372    0.40546   1.00
H2       0.67477    0.94723    0.37422   1.00
C6       0.67866    0.99909    0.34674   1.00
C6       0.77782    1.00184    0.36383   1.00
H2       0.70550    1.14976    0.39258   1.00
C6       0.79235    1.18539    0.37300   1.00
C6       0.67263    1.13341    0.36140   1.00
C6       0.44202    0.87035    0.42046   1.00
C6       0.36351    0.79611    0.39300   1.00
H2       0.40937    0.76564    0.41536   1.00
H2       0.43465    0.75236    0.36623   1.00
C6       0.52395    0.74486    0.36172   1.00
C6       0.42650    0.67084    0.38480   1.00
H2       0.57257    0.77696    0.40287   1.00
C6       0.61304    0.86978    0.41928   1.00
C6       0.51584    0.75772    0.43045   1.00
H2       0.68977    1.04737    0.43316   1.00
H2       0.74954    1.13342    0.42758   1.00
H2       0.77500    1.08152    0.44061   1.00
H2       0.86311    1.08180    0.41461   1.00
H2       0.85571    1.10656    0.38991   1.00
H2       0.85859    1.15596    0.41081   1.00
H2       0.67060    0.95504    0.33776   1.00
H2       0.62936    0.99630    0.34773   1.00
H2       0.71359    1.04486    0.33828   1.00
H2       0.79841    0.99167    0.37751   1.00
H2       0.77205    0.96336    0.35274   1.00
H2       0.81520    1.05168    0.35780   1.00
H2       0.81329    1.16552    0.36173   1.00
H2       0.79491    1.23134    0.36671   1.00
H2       0.82572    1.20277    0.38615   1.00
H2       0.69391    1.13435    0.34646   1.00
H2       0.62079    1.09099    0.36144   1.00
H2       0.66938    1.17986    0.36271   1.00
H2       0.44664    0.91437    0.41234   1.00
H2       0.40002    0.85436    0.43123   1.00
H2       0.48820    0.88691    0.42933   1.00
H2       0.32123    0.78697    0.40301   1.00
H2       0.37298    0.83869    0.38324   1.00
H2       0.34514    0.75064    0.38360   1.00
H2       0.49949    0.70814    0.34940   1.00
H2       0.55529    0.79472    0.35465   1.00
H2       0.55771    0.73137    0.36973   1.00
H2       0.38530    0.66541    0.39462   1.00
H2       0.40288    0.63402    0.37246   1.00
H2       0.45862    0.65640    0.39337   1.00
H2       0.59769    0.90184    0.42743   1.00
H2       0.64496    0.85918    0.42934   1.00
H2       0.64487    0.89914    0.40662   1.00
H2       0.55155    0.74714    0.43864   1.00
H2       0.49836    0.78303    0.44098   1.00
H2       0.47228    0.70850    0.42637   1.00
C4       0.53926    0.51060    0.38185   1.00
C4       0.51591    0.53777    0.36623   1.00
C3       0.60923    0.53525    0.38610   1.00
C3       0.55996    0.58794    0.35212   1.00
C3       0.49037    0.45497    0.39379   1.00
C3       0.44467    0.51401    0.36447   1.00
C2       0.58237    0.45068    0.41304   1.00
C2       0.46458    0.58903    0.33477   1.00
C3       0.63024    0.50590    0.40118   1.00
C3       0.53510    0.61336    0.33694   1.00
C3       0.51260    0.42691    0.40919   1.00
C3       0.42041    0.53814    0.34853   1.00
H1       0.64698    0.57539    0.37841   1.00
H1       0.61135    0.60720    0.35238   1.00
C5       0.41960    0.42793    0.39033   1.00
C5       0.39791    0.46589    0.37849   1.00
H1       0.68155    0.52555    0.40347   1.00
H1       0.56940    0.65004    0.32728   1.00
H1       0.47695    0.38827    0.41801   1.00
H1       0.36897    0.51745    0.34669   1.00
O3       0.37308    0.36757    0.39944   1.00
O3       0.33135    0.45245    0.37960   1.00
Si1      0.34594    0.29557    0.38737   1.00
Si1      0.31443    0.50187    0.39345   1.00
C6       0.30074    0.24109    0.40777   1.00
C6       0.29003    0.29197    0.36817   1.00
C6       0.41243    0.28218    0.37904   1.00
C6       0.38287    0.57226    0.40571   1.00
C6       0.27596    0.53123    0.37614   1.00
C6       0.25235    0.44959    0.41133   1.00
C6       0.33969    0.25779    0.42852   1.00
H2       0.25947    0.25212    0.41010   1.00
C6       0.26508    0.16153    0.40551   1.00
H2       0.27243    0.32532    0.37425   1.00
C6       0.32034    0.32136    0.34677   1.00
C6       0.22393    0.22226    0.36388   1.00
H2       0.44419    0.29451    0.39260   1.00
C6       0.39290    0.20763    0.37304   1.00
C6       0.46067    0.32733    0.36142   1.00
C6       0.42847    0.55811    0.42046   1.00
C6       0.43273    0.63660    0.39300   1.00
H2       0.35643    0.59081    0.41537   1.00
H2       0.31780    0.56547    0.36624   1.00
C6       0.22096    0.47619    0.36175   1.00
C6       0.24448    0.57369    0.38482   1.00
H2       0.20448    0.42763    0.40291   1.00
C6       0.25682    0.38713    0.41931   1.00
C6       0.24204    0.48439    0.43048   1.00
H2       0.35762    0.31034    0.43319   1.00
H2       0.38385    0.25053    0.42761   1.00
H2       0.30652    0.22513    0.44065   1.00
H2       0.21863    0.13701    0.41467   1.00
H2       0.25075    0.14436    0.38996   1.00
H2       0.29728    0.14148    0.41086   1.00
H2       0.28436    0.32944    0.33780   1.00
H2       0.36686    0.37065    0.34776   1.00
H2       0.33115    0.28641    0.33831   1.00
H2       0.19318    0.20169    0.37756   1.00
H2       0.19122    0.22803    0.35279   1.00
H2       0.23635    0.18485    0.35785   1.00
H2       0.35208    0.18670    0.36177   1.00
H2       0.43628    0.20504    0.36674   1.00
H2       0.37692    0.17428    0.38619   1.00
H2       0.44031    0.30604    0.34649   1.00
H2       0.47013    0.37918    0.36146   1.00
H2       0.51037    0.33055    0.36272   1.00
H2       0.46784    0.55346    0.41235   1.00
H2       0.45451    0.60012    0.43123   1.00
H2       0.39883    0.51194    0.42934   1.00
H2       0.46591    0.67889    0.40301   1.00
H2       0.46581    0.62709    0.38324   1.00
H2       0.40563    0.65498    0.38360   1.00
H2       0.20870    0.50065    0.34943   1.00
H2       0.23945    0.44482    0.35468   1.00
H2       0.17371    0.44246    0.36977   1.00
H2       0.28028    0.61490    0.39464   1.00
H2       0.23127    0.59731    0.37248   1.00
H2       0.19792    0.54160    0.39340   1.00
H2       0.30423    0.40247    0.42746   1.00
H2       0.21430    0.35525    0.42938   1.00
H2       0.25431    0.35528    0.40666   1.00
H2       0.19575    0.44870    0.43867   1.00
H2       0.28484    0.50186    0.44101   1.00
H2       0.23640    0.52796    0.42640   1.00
C4       0.19941    0.35879    0.21604   1.00
C4       0.17588    0.30817    0.20044   1.00
C3       0.16275    0.35161    0.23421   1.00
C3       0.11069    0.24827    0.20060   1.00
C3       0.26258    0.42070    0.21335   1.00
C3       0.21954    0.31727    0.18368   1.00
C2       0.24881    0.46492    0.24641   1.00
C2       0.13146    0.20898    0.16808   1.00
C3       0.18653    0.40333    0.24893   1.00
C3       0.08930    0.19970    0.18497   1.00
C3       0.28631    0.47173    0.22855   1.00
C3       0.19589    0.26918    0.16766   1.00
H1       0.11781    0.30849    0.23732   1.00
H1       0.07667    0.23835    0.21202   1.00
C5       0.30176    0.43111    0.19553   1.00
C5       0.28629    0.37452    0.18287   1.00
H1       0.15759    0.39548    0.26171   1.00
H1       0.04185    0.15707    0.18598   1.00
H1       0.33261    0.51507    0.22667   1.00
H1       0.22605    0.27861    0.15516   1.00
O3       0.35642    0.49477    0.19143   1.00
O3       0.33374    0.37753    0.16910   1.00
Si1      0.34591    0.54781    0.17718   1.00
Si1      0.37849    0.34156    0.17490   1.00
C6       0.42752    0.61953    0.18102   1.00
C6       0.33582    0.51806    0.15200   1.00
C6       0.28108    0.56303    0.18600   1.00
C6       0.36190    0.29774    0.19826   1.00
C6       0.36086    0.28399    0.15487   1.00
C6       0.46511    0.40497    0.17336   1.00
C6       0.45256    0.63493    0.20359   1.00
H2       0.46068    0.60388    0.17364   1.00
C6       0.44711    0.69064    0.17155   1.00
H2       0.36206    0.48870    0.15236   1.00
C6       0.26211    0.46776    0.14419   1.00
C6       0.37056    0.57132    0.13454   1.00
H2       0.29322    0.57281    0.20213   1.00
C6       0.28056    0.62742    0.17752   1.00
C6       0.20448    0.50466    0.18468   1.00
C6       0.36818    0.33813    0.21814   1.00
C6       0.29604    0.22628    0.20066   1.00
H2       0.40315    0.28608    0.19908   1.00
H2       0.30782    0.24487    0.15735   1.00
C6       0.36293    0.31213    0.13302   1.00
C6       0.40265    0.24612    0.15398   1.00
H2       0.47662    0.40830    0.15718   1.00
C6       0.48294    0.47847    0.17959   1.00
C6       0.51880    0.39136    0.18415   1.00
H2       0.45125    0.59083    0.21077   1.00
H2       0.42093    0.64903    0.21258   1.00
H2       0.50530    0.67672    0.20450   1.00
H2       0.50124    0.71822    0.16757   1.00
H2       0.41850    0.68644    0.15786   1.00
H2       0.43918    0.72312    0.18214   1.00
H2       0.26380    0.44226    0.13029   1.00
H2       0.23262    0.42758    0.15510   1.00
H2       0.23454    0.49463    0.14074   1.00
H2       0.42530    0.60323    0.13706   1.00
H2       0.36486    0.54614    0.11992   1.00
H2       0.34797    0.60392    0.13308   1.00
H2       0.28031    0.62750    0.16095   1.00
H2       0.23604    0.63011    0.18270   1.00
H2       0.32436    0.67422    0.18286   1.00
H2       0.18150    0.50430    0.17010   1.00
H2       0.19738    0.45411    0.18688   1.00
H2       0.17445    0.51187    0.19640   1.00
H2       0.32187    0.33996    0.22122   1.00
H2       0.37671    0.31354    0.23120   1.00
H2       0.41075    0.39021    0.21760   1.00
H2       0.29790    0.20175    0.21475   1.00
H2       0.24994    0.22988    0.20124   1.00
H2       0.29057    0.19146    0.18844   1.00
H2       0.34023    0.27026    0.12207   1.00
H2       0.33362    0.33845    0.13219   1.00
H2       0.41492    0.34747    0.12808   1.00
H2       0.40232    0.22293    0.16851   1.00
H2       0.38052    0.20491    0.14280   1.00
H2       0.45552    0.28061    0.14957   1.00
H2       0.47115    0.48140    0.19547   1.00
H2       0.53680    0.51530    0.17707   1.00
H2       0.45385    0.49473    0.17041   1.00
H2       0.57061    0.42907    0.17953   1.00
H2       0.51595    0.39422    0.20064   1.00
H2       0.51172    0.34145    0.18025   1.00
C4       0.63366    0.83752    0.21383   1.00
C4       0.68556    0.86673    0.19863   1.00
C3       0.56983    0.83487    0.21228   1.00
C3       0.68135    0.90166    0.18130   1.00
C3       0.64611    0.81021    0.23178   1.00
C3       0.74519    0.86089    0.20069   1.00
C2       0.53270    0.78066    0.24567   1.00
C2       0.79340    0.92573    0.16882   1.00
C3       0.52088    0.80759    0.22780   1.00
C3       0.73348    0.92981    0.16670   1.00
C3       0.59555    0.78175    0.24710   1.00
C3       0.79840    0.89214    0.18626   1.00
H1       0.55695    0.85248    0.19980   1.00
H1       0.64050    0.90806    0.17882   1.00
C5       0.70886    0.81123    0.23428   1.00
C5       0.75177    0.82449    0.21719   1.00
H1       0.47584    0.80750    0.22590   1.00
H1       0.72739    0.95398    0.15438   1.00
H1       0.60444    0.76064    0.25964   1.00
H1       0.84258    0.89126    0.18862   1.00
O3       0.72526    0.79549    0.25287   1.00
O3       0.80191    0.80666    0.21737   1.00
Si1      0.77044    0.85632    0.26901   1.00
Si1      0.78742    0.73681    0.20590   1.00
C6       0.76225    0.80346    0.28975   1.00
C6       0.85493    0.90022    0.25990   1.00
C6       0.73487    0.90833    0.27456   1.00
C6       0.70906    0.68872    0.19299   1.00
C6       0.85489    0.76565    0.18847   1.00
C6       0.79796    0.68562    0.22401   1.00
C6       0.68825    0.74381    0.29429   1.00
H2       0.79034    0.77878    0.28450   1.00
C6       0.79343    0.83469    0.31102   1.00
H2       0.85691    0.86132    0.25063   1.00
C6       0.87644    0.96271    0.24553   1.00
C6       0.91474    0.92408    0.27548   1.00
H2       0.68152    0.87062    0.27750   1.00
C6       0.76121    0.95383    0.29406   1.00
C6       0.73459    0.95763    0.25783   1.00
C6       0.64166    0.66326    0.20534   1.00
C6       0.69766    0.71486    0.17217   1.00
H2       0.71022    0.64259    0.18891   1.00
H2       0.84327    0.79394    0.17731   1.00
C6       0.92742    0.81767    0.19682   1.00
C6       0.86265    0.71045    0.17641   1.00
H2       0.85308    0.70676    0.22474   1.00
C6       0.77625    0.68988    0.24615   1.00
C6       0.76680    0.60788    0.21925   1.00
H2       0.66544    0.71163    0.28096   1.00
H2       0.65496    0.76330    0.29906   1.00
H2       0.68836    0.71056    0.30629   1.00
H2       0.81050    0.80298    0.31866   1.00
H2       0.83700    0.88599    0.31001   1.00
H2       0.75622    0.83683    0.32108   1.00
H2       0.92398    0.97591    0.23764   1.00
H2       0.83862    0.95210    0.23380   1.00
H2       0.88480    1.00761    0.25403   1.00
H2       0.90997    0.88146    0.28447   1.00
H2       0.96407    0.94586    0.26779   1.00
H2       0.91667    0.96305    0.28567   1.00
H2       0.81672    0.98545    0.29396   1.00
H2       0.73996    0.98769    0.29551   1.00
H2       0.74555    0.92298    0.30775   1.00
H2       0.78155    1.00699    0.25790   1.00
H2       0.72821    0.93751    0.24258   1.00
H2       0.69253    0.96735    0.26051   1.00
H2       0.62735    0.70246    0.20653   1.00
H2       0.59940    0.61936    0.19786   1.00
H2       0.64548    0.64712    0.22060   1.00
H2       0.65136    0.67539    0.16481   1.00
H2       0.69167    0.75936    0.17388   1.00
H2       0.73928    0.72755    0.16156   1.00
H2       0.96353    0.84123    0.18431   1.00
H2       0.92685    0.85904    0.20520   1.00
H2       0.94729    0.79332    0.20683   1.00
H2       0.81462    0.67282    0.16949   1.00
H2       0.89954    0.73417    0.16409   1.00
H2       0.88085    0.68387    0.18616   1.00
H2       0.72193    0.67240    0.24733   1.00
H2       0.78812    0.65983    0.25661   1.00
H2       0.80402    0.74230    0.25140   1.00
H2       0.78551    0.58415    0.22998   1.00
H2       0.71119    0.58068    0.22029   1.00
H2       0.78083    0.59955    0.20415   1.00
C4       0.16142    0.79520    0.21388   1.00
C4       0.13235    0.81815    0.19872   1.00
C3       0.15247    0.72851    0.21429   1.00
C3       0.08646    0.77500    0.18357   1.00
C3       0.20090    0.84071    0.22977   1.00
C3       0.14985    0.88809    0.19850   1.00
C2       0.21908    0.75162    0.24562   1.00
C2       0.07453    0.86811    0.16887   1.00
C3       0.18015    0.70715    0.22978   1.00
C3       0.05883    0.79939    0.16893   1.00
C3       0.22947    0.81859    0.24505   1.00
C3       0.11918    0.91097    0.18416   1.00
H1       0.12577    0.69358    0.20331   1.00
H1       0.07143    0.72449    0.18280   1.00
C5       0.21183    0.90811    0.23025   1.00
C5       0.19733    0.93471    0.21267   1.00
H1       0.17157    0.65816    0.22936   1.00
H1       0.02637    0.76598    0.15824   1.00
H1       0.25924    0.85238    0.25603   1.00
H1       0.12885    0.96011    0.18501   1.00
O3       0.23995    0.94788    0.24725   1.00
O3       0.22512    1.00427    0.21027   1.00
Si1      0.19031    0.94959    0.26493   1.00
Si1      0.29182    1.04548    0.19572   1.00
C6       0.25472    0.99686    0.28290   1.00
C6       0.15401    0.99714    0.25549   1.00
C6       0.13125    0.86793    0.27432   1.00
C6       0.32360    0.99842    0.18299   1.00
C6       0.26482    1.08445    0.17783   1.00
C6       0.35649    1.11016    0.21057   1.00
C6       0.30755    0.97245    0.28664   1.00
H2       0.28350    1.04645    0.27550   1.00
C6       0.23655    1.01207    0.30455   1.00
H2       0.19159    1.02958    0.24422   1.00
C6       0.08456    0.95845    0.24389   1.00
C6       0.14606    1.04700    0.27020   1.00
H2       0.16353    0.84550    0.27697   1.00
C6       0.09622    0.86454    0.29512   1.00
C6       0.07099    0.81653    0.26039   1.00
C6       0.34469    0.95428    0.19604   1.00
C6       0.28424    0.95379    0.16417   1.00
H2       0.37111    1.03868    0.17649   1.00
H2       0.22755    1.04198    0.16867   1.00
C6       0.22576    1.11976    0.18646   1.00
C6       0.31950    1.13625    0.16275   1.00
H2       0.34385    1.15079    0.21061   1.00
C6       0.35831    1.09301    0.23338   1.00
C6       0.43179    1.14350    0.20279   1.00
H2       0.33181    0.97059    0.27253   1.00
H2       0.28317    0.92168    0.29347   1.00
H2       0.34849    1.00736    0.29675   1.00
H2       0.27680    1.06182    0.30986   1.00
H2       0.18897    1.01286    0.30483   1.00
H2       0.23242    0.97481    0.31581   1.00
H2       0.07513    0.99415    0.23525   1.00
H2       0.08395    0.92211    0.23297   1.00
H2       0.04203    0.93143    0.25438   1.00
H2       0.19478    1.08363    0.27699   1.00
H2       0.12789    1.07711    0.26214   1.00
H2       0.10951    1.01910    0.28226   1.00
H2       0.07209    0.89593    0.29488   1.00
H2       0.05709    0.81244    0.29903   1.00
H2       0.13263    0.88116    0.30753   1.00
H2       0.02656    0.82314    0.26154   1.00
H2       0.08437    0.82072    0.24448   1.00
H2       0.05456    0.76407    0.26493   1.00
H2       0.30098    0.90479    0.19976   1.00
H2       0.38074    0.94456    0.18772   1.00
H2       0.36953    0.97945    0.21014   1.00
H2       0.31493    0.93588    0.15632   1.00
H2       0.23655    0.90874    0.16840   1.00
H2       0.27309    0.98240    0.15300   1.00
H2       0.20119    1.13200    0.17417   1.00
H2       0.18539    1.08627    0.19693   1.00
H2       0.25973    1.16706    0.19442   1.00
H2       0.34812    1.11506    0.15549   1.00
H2       0.29498    1.14927    0.15063   1.00
H2       0.35544    1.18361    0.17038   1.00
H2       0.36806    1.05084    0.23539   1.00
H2       0.39717    1.13698    0.24174   1.00
H2       0.30964    1.07866    0.24043   1.00
H2       0.46523    1.18932    0.21153   1.00
H2       0.45161    1.10850    0.20419   1.00
H2       0.43620    1.15918    0.18697   1.00
C4       1.02573    0.53136    0.61741   1.00
C4       0.97529    0.50824    0.63306   1.00
C3       1.02904    0.48768    0.60256   1.00
C3       0.92709    0.43844    0.63654   1.00
C3       1.07659    0.60182    0.61660   1.00
C3       0.97222    0.55713    0.64602   1.00
C2       1.13135    0.58147    0.58687   1.00
C2       0.87587    0.46548    0.66532   1.00
C3       1.08060    0.51192    0.58778   1.00
C3       0.87832    0.41766    0.65210   1.00
C3       1.12742    0.62550    0.60134   1.00
C3       0.92459    0.53493    0.66215   1.00
H1       0.99396    0.43701    0.60201   1.00
H1       0.92625    0.40063    0.62797   1.00
C5       1.07618    0.64823    0.63099   1.00
C5       1.01700    0.62783    0.64295   1.00
H1       1.08070    0.47786    0.57753   1.00
H1       0.84436    0.36653    0.65380   1.00
H1       1.16243    0.67649    0.60060   1.00
H1       0.92592    0.57025    0.67208   1.00
O3       1.13129    0.71334    0.63229   1.00
O3       1.00628    0.67596    0.65254   1.00
Si1      1.19234    0.73004    0.64845   1.00
Si1      0.95410    0.69734    0.64226   1.00
C6       1.24928    0.81374    0.64007   1.00
C6       1.16077    0.73023    0.67288   1.00
C6       1.22792    0.67668    0.64561   1.00
C6       0.91138    0.65551    0.61971   1.00
C6       0.89404    0.67989    0.66153   1.00
C6       1.00010    0.78623    0.63846   1.00
C6       1.26058    0.82307    0.61656   1.00
H2       1.22219    0.84066    0.64410   1.00
C6       1.32220    0.85659    0.64965   1.00
H2       1.12083    0.74240    0.66958   1.00
C6       1.12520    0.66180    0.68507   1.00
C6       1.20921    0.78536    0.68848   1.00
H2       1.23625    0.67839    0.62924   1.00
C6       1.29908    0.70081    0.65568   1.00
C6       1.18454    0.59920    0.65150   1.00
C6       0.95554    0.65895    0.60103   1.00
C6       0.85066    0.58029    0.62076   1.00
H2       0.88691    0.68455    0.61523   1.00
H2       0.86563    0.62433    0.66234   1.00
C6       0.92350    0.70449    0.68334   1.00
C6       0.84023    0.70285    0.65793   1.00
H2       0.99969    0.80732    0.65331   1.00
C6       1.07704    0.81779    0.63300   1.00
C6       0.97052    0.81794    0.62323   1.00
H2       1.21238    0.80428    0.60846   1.00
H2       1.28560    0.79583    0.61081   1.00
H2       1.29222    0.87688    0.61254   1.00
H2       1.33742    0.91065    0.64987   1.00
H2       1.32483    0.84169    0.66515   1.00
H2       1.36107    0.85261    0.64093   1.00
H2       1.09564    0.66506    0.69771   1.00
H2       1.08945    0.61911    0.67576   1.00
H2       1.16258    0.64992    0.69142   1.00
H2       1.22941    0.83681    0.68246   1.00
H2       1.18205    0.78329    0.70243   1.00
H2       1.25165    0.77781    0.69265   1.00
H2       1.29835    0.71179    0.67177   1.00
H2       1.31485    0.66248    0.65435   1.00
H2       1.33904    0.74594    0.64823   1.00
H2       1.18979    0.59054    0.66752   1.00
H2       1.13054    0.57725    0.64853   1.00
H2       1.20162    0.56939    0.64278   1.00
H2       0.97075    0.62035    0.60188   1.00
H2       0.92656    0.64979    0.58698   1.00
H2       1.00139    0.70861    0.59955   1.00
H2       0.82368    0.56511    0.60625   1.00
H2       0.86763    0.54406    0.62406   1.00
H2       0.81287    0.57396    0.63210   1.00
H2       0.88280    0.68146    0.69466   1.00
H2       0.96090    0.68929    0.68727   1.00
H2       0.94788    0.75976    0.68488   1.00
H2       0.81536    0.68601    0.64320   1.00
H2       0.80006    0.68062    0.66943   1.00
H2       0.86343    0.75822    0.65886   1.00
H2       1.08447    0.79852    0.61864   1.00
H2       1.10268    0.87336    0.63209   1.00
H2       1.10276    0.80545    0.64474   1.00
H2       0.99759    0.87354    0.62454   1.00
H2       0.97539    0.80539    0.60754   1.00
H2       0.91688    0.80030    0.62619   1.00
C4       0.50553    -0.02575   0.61742   1.00
C4       0.53287    0.02468    0.63307   1.00
C3       0.45778    -0.02966   0.60276   1.00
C3       0.51059    0.07224    0.63675   1.00
C3       0.52594    -0.07599   0.61642   1.00
C3       0.58557    0.02842    0.64582   1.00
C2       0.45008    -0.13134   0.58687   1.00
C2       0.58963    0.12412    0.66532   1.00
C3       0.43050    -0.08120   0.58797   1.00
C3       0.53861    0.12102    0.65230   1.00
C3       0.49880    -0.12681   0.60115   1.00
C3       0.61106    0.07603    0.66196   1.00
H1       0.44159    0.00496    0.60235   1.00
H1       0.47306    0.07258    0.62832   1.00
C5       0.57355    -0.07496   0.63061   1.00
C5       0.61217    -0.01569   0.64255   1.00
H1       0.39576    -0.08175   0.57786   1.00
H1       0.52092    0.15451    0.65415   1.00
H1       0.51534    -0.16136   0.60027   1.00
H1       0.64563    0.07516    0.67175   1.00
O3       0.58442    -0.12955   0.63175   1.00
O3       0.67160    -0.00425   0.65192   1.00
Si1      0.54115    -0.19083   0.64795   1.00
Si1      0.74460    0.04861    0.64146   1.00
C6       0.56859    -0.24698   0.63934   1.00
C6       0.57350    -0.15909   0.67232   1.00
C6       0.45201    -0.22738   0.64539   1.00
C6       0.74415    0.09108    0.61901   1.00
C6       0.78731    0.10880    0.66069   1.00
C6       0.78828    0.00352    0.63738   1.00
C6       0.56598    -0.25819   0.61581   1.00
H2       0.62274    -0.21935   0.64321   1.00
C6       0.53963    -0.31983   0.64888   1.00
H2       0.62531    -0.11870   0.66890   1.00
C6       0.54035    -0.12424   0.68473   1.00
C6       0.58144    -0.20712   0.68778   1.00
H2       0.44491    -0.23571   0.62903   1.00
C6       0.40597    -0.29871   0.65549   1.00
C6       0.41727    -0.18478   0.65152   1.00
C6       0.70314    0.04670    0.60040   1.00
C6       0.72875    0.15118    0.62025   1.00
H2       0.79754    0.11613    0.61437   1.00
H2       0.75962    0.13663    0.66168   1.00
C6       0.78356    0.07943    0.68246   1.00
C6       0.86375    0.16330    0.65690   1.00
H2       0.81041    0.00419    0.65215   1.00
C6       0.74347    -0.07350   0.63194   1.00
C6       0.84907    0.03377    0.62197   1.00
H2       0.59466    -0.20990   0.60770   1.00
H2       0.51352    -0.28374   0.61022   1.00
H2       0.58860    -0.28929   0.61163   1.00
H2       0.57896    -0.33441   0.64890   1.00
H2       0.52255    -0.32271   0.66444   1.00
H2       0.49674    -0.35901   0.64024   1.00
H2       0.57340    -0.09446   0.69729   1.00
H2       0.53255    -0.08882   0.67553   1.00
H2       0.49149    -0.16205   0.69119   1.00
H2       0.61297    -0.22674   0.68160   1.00
H2       0.60679    -0.17984   0.70169   1.00
H2       0.53182    -0.24997   0.69206   1.00
H2       0.41829    -0.29785   0.67154   1.00
H2       0.35168    -0.31511   0.65435   1.00
H2       0.41147    -0.33831   0.64793   1.00
H2       0.40387    -0.19022   0.66758   1.00
H2       0.44870    -0.13071   0.64854   1.00
H2       0.37001    -0.20237   0.64295   1.00
H2       0.64921    0.03086    0.60143   1.00
H2       0.72222    0.07578    0.58633   1.00
H2       0.70755    0.00123    0.59879   1.00
H2       0.73978    0.17816    0.60575   1.00
H2       0.67554    0.13358    0.62373   1.00
H2       0.76029    0.18912    0.63155   1.00
H2       0.80116    0.12006    0.69379   1.00
H2       0.73124    0.04155    0.68652   1.00
H2       0.81504    0.05564    0.68382   1.00
H2       0.87100    0.18813    0.64220   1.00
H2       0.88164    0.20341    0.66842   1.00
H2       0.89647    0.14069    0.65765   1.00
H2       0.71622    -0.08121   0.61767   1.00
H2       0.77393    -0.09854   0.63084   1.00
H2       0.70591    -0.09958   0.64377   1.00
H2       0.87821    0.00728    0.62311   1.00
H2       0.83107    0.02872    0.60635   1.00
H2       0.88468    0.08753    0.62491   1.00
C4       0.46870    0.49446    0.61742   1.00
C4       0.49180    0.46713    0.63307   1.00
C3       0.51254    0.54219    0.60275   1.00
C3       0.56164    0.48938    0.63674   1.00
C3       0.39806    0.47409    0.61642   1.00
C3       0.44284    0.41446    0.64583   1.00
C2       0.41856    0.54992    0.58687   1.00
C2       0.53449    0.41037    0.66532   1.00
C3       0.48828    0.56947    0.58797   1.00
C3       0.58241    0.46136    0.65230   1.00
C3       0.37439    0.50123    0.60116   1.00
C3       0.46497    0.38897    0.66197   1.00
H1       0.56335    0.55835    0.60233   1.00
H1       0.59950    0.52688    0.62831   1.00
C5       0.35149    0.42651    0.63063   1.00
C5       0.37213    0.38788    0.64257   1.00
H1       0.52246    0.60418    0.57785   1.00
H1       0.63358    0.47903    0.65413   1.00
H1       0.32330    0.48472    0.60028   1.00
H1       0.42954    0.35443    0.67176   1.00
O3       0.28604    0.41567    0.63177   1.00
O3       0.32414    0.32848    0.65195   1.00
Si1      0.26809    0.45899    0.64797   1.00
Si1      0.30394    0.25546    0.64149   1.00
C6       0.18449    0.43158    0.63937   1.00
C6       0.26750    0.42667    0.67235   1.00
C6       0.32072    0.54813    0.64540   1.00
C6       0.34682    0.25585    0.61904   1.00
C6       0.32142    0.21275    0.66073   1.00
C6       0.21516    0.21181    0.63743   1.00
C6       0.17587    0.43416    0.61584   1.00
H2       0.15797    0.37744    0.64324   1.00
C6       0.14064    0.46058    0.64891   1.00
H2       0.25605    0.37485    0.66893   1.00
C6       0.33552    0.45980    0.68474   1.00
C6       0.21156    0.41878    0.68781   1.00
H2       0.31947    0.55521    0.62904   1.00
C6       0.29547    0.59421    0.65550   1.00
C6       0.39805    0.58284    0.65152   1.00
C6       0.34345    0.29685    0.60042   1.00
C6       0.42230    0.27121    0.62027   1.00
H2       0.31845    0.20245    0.61440   1.00
H2       0.37695    0.24042    0.66171   1.00
C6       0.29585    0.21655    0.68250   1.00
C6       0.29944    0.13630    0.65694   1.00
H2       0.19372    0.18970    0.65220   1.00
C6       0.18298    0.25664    0.63199   1.00
C6       0.18458    0.15100    0.62203   1.00
H2       0.19544    0.40546    0.60773   1.00
H2       0.20279    0.48662    0.61024   1.00
H2       0.12214    0.41156    0.61167   1.00
H2       0.08673    0.42128    0.64894   1.00
H2       0.15488    0.47768    0.66447   1.00
H2       0.14438    0.50348    0.64027   1.00
H2       0.33224    0.42676    0.69731   1.00
H2       0.37871    0.46757    0.67554   1.00
H2       0.34660    0.50869    0.69120   1.00
H2       0.16040    0.38726    0.68163   1.00
H2       0.21350    0.39344    0.70172   1.00
H2       0.21836    0.46842    0.69208   1.00
H2       0.28402    0.58191    0.67155   1.00
H2       0.33338    0.64849    0.65435   1.00
H2       0.25037    0.58872    0.64794   1.00
H2       0.40604    0.59626    0.66758   1.00
H2       0.42067    0.55138    0.64854   1.00
H2       0.42773    0.63009    0.64295   1.00
H2       0.38156    0.35077    0.60145   1.00
H2       0.35341    0.27773    0.58636   1.00
H2       0.29357    0.29246    0.59882   1.00
H2       0.43823    0.26015    0.60577   1.00
H2       0.45795    0.32442    0.62374   1.00
H2       0.42870    0.23968    0.63157   1.00
H2       0.31888    0.19894    0.69383   1.00
H2       0.31032    0.26888    0.68655   1.00
H2       0.24058    0.18510    0.68386   1.00
H2       0.31700    0.12902    0.64224   1.00
H2       0.32166    0.11841    0.66846   1.00
H2       0.24411    0.10360    0.65770   1.00
H2       0.20252    0.28387    0.61771   1.00
H2       0.12748    0.22621    0.63090   1.00
H2       0.19450    0.29423    0.64381   1.00
H2       0.12895    0.12188    0.62317   1.00
H2       0.19751    0.16897    0.60640   1.00
H2       0.20271    0.11537    0.62496   1.00
C4       0.46642    -0.03208   0.11930   1.00
C4       0.49015    0.02009    0.13443   1.00
C3       0.49717    -0.07236   0.11545   1.00
C3       0.55052    0.04137    0.14593   1.00
C3       0.40944    -0.04440   0.10703   1.00
C3       0.45174    0.05312    0.13848   1.00
C2       0.41751    -0.13427   0.08774   1.00
C2       0.53554    0.12705    0.16445   1.00
C3       0.47367    -0.12178   0.10004   1.00
C3       0.57228    0.09292    0.16066   1.00
C3       0.38571    -0.09538   0.09180   1.00
C3       0.47610    0.10694    0.15277   1.00
H1       0.53739    -0.06713   0.12378   1.00
H1       0.58069    0.02034    0.14385   1.00
C5       0.37635    -0.00593   0.11009   1.00
C5       0.38959    0.03277    0.12815   1.00
H1       0.49824    -0.14902   0.09786   1.00
H1       0.61603    0.10579    0.16863   1.00
H1       0.34362    -0.10495   0.08350   1.00
H1       0.45036    0.13299    0.15456   1.00
O3       0.32914    -0.00986   0.09616   1.00
O3       0.34518    0.05413    0.13457   1.00
Si1      0.35316    0.04548    0.07770   1.00
Si1      0.29062    0.01149    0.15250   1.00
C6       0.27556    0.00598    0.06413   1.00
C6       0.36930    0.12371    0.08824   1.00
C6       0.42039    0.04956    0.06305   1.00
C6       0.29302    -0.05850   0.16348   1.00
C6       0.30884    0.07373    0.17112   1.00
C6       0.20863    -0.01478   0.14282   1.00
C6       0.24263    -0.07278   0.06069   1.00
H2       0.24118    0.01175    0.07450   1.00
C6       0.26851    0.03537    0.04327   1.00
H2       0.33732    0.10703    0.10178   1.00
C6       0.44308    0.17461    0.09588   1.00
C6       0.34679    0.16855    0.07609   1.00
H2       0.40276    -0.00430   0.06023   1.00
C6       0.43325    0.08410    0.04167   1.00
C6       0.49361    0.08073    0.07258   1.00
C6       0.28444    -0.11736   0.14917   1.00
C6       0.35163    -0.04528   0.17866   1.00
H2       0.24751    -0.08111   0.17301   1.00
H2       0.35841    0.08502    0.17703   1.00
C6       0.31899    0.14360    0.16338   1.00
C6       0.25972    0.05278    0.18976   1.00
H2       0.20315    0.03023    0.14441   1.00
C6       0.19775    -0.03263   0.11979   1.00
C6       0.14588    -0.07394   0.15400   1.00
H2       0.23506    -0.09993   0.07501   1.00
H2       0.27457    -0.08437   0.05094   1.00
H2       0.19244    -0.09407   0.05359   1.00
H2       0.21673    0.02668    0.04154   1.00
H2       0.30338    0.08984    0.04178   1.00
H2       0.27739    0.01051    0.03038   1.00
H2       0.44303    0.21334    0.10578   1.00
H2       0.46439    0.14922    0.10476   1.00
H2       0.47730    0.20110    0.08322   1.00
H2       0.29249    0.14017    0.07251   1.00
H2       0.35487    0.21289    0.08493   1.00
H2       0.37579    0.18740    0.06202   1.00
H2       0.43988    0.13519    0.04279   1.00
H2       0.47866    0.08859    0.03433   1.00
H2       0.39152    0.05386    0.03133   1.00
H2       0.52342    0.13594    0.07061   1.00
H2       0.49316    0.07072    0.08866   1.00
H2       0.52185    0.05916    0.06520   1.00
H2       0.33245    -0.10567   0.14202   1.00
H2       0.26697    -0.16451   0.15777   1.00
H2       0.24702    -0.12824   0.13728   1.00
H2       0.34081    -0.09261   0.18626   1.00
H2       0.40061    -0.02579   0.17111   1.00
H2       0.35720    -0.00964   0.19064   1.00
H2       0.34128    0.18221    0.17531   1.00
H2       0.35397    0.16274    0.15049   1.00
H2       0.27093    0.13985    0.15878   1.00
H2       0.25123    0.00525    0.19657   1.00
H2       0.28158    0.09190    0.20157   1.00
H2       0.21041    0.04688    0.18554   1.00
H2       0.20452    -0.07577   0.11606   1.00
H2       0.14700    -0.04449   0.11477   1.00
H2       0.23428    0.01082    0.11095   1.00
H2       0.09822    -0.07831   0.14855   1.00
H2       0.14297    -0.12302   0.15146   1.00
H2       0.14783    -0.06513   0.17030   1.00
C4       1.02922    0.48960    0.11831   1.00
C4       0.97861    0.46252    0.13392   1.00
C3       1.08025    0.47124    0.11581   1.00
C3       0.97775    0.41926    0.14965   1.00
C3       1.02998    0.53862    0.10454   1.00
C3       0.92551    0.47908    0.13393   1.00
C2       1.13185    0.54921    0.08700   1.00
C2       0.87537    0.41108    0.16519   1.00
C3       1.13040    0.50047    0.10067   1.00
C3       0.92721    0.39371    0.16475   1.00
C3       1.08023    0.56657    0.08913   1.00
C3       0.87677    0.45518    0.14978   1.00
H1       1.08234    0.43591    0.12488   1.00
H1       1.01404    0.40538    0.15068   1.00
C5       0.98037    0.55919    0.10620   1.00
C5       0.92160    0.51986    0.11827   1.00
H1       1.16632    0.48558    0.09968   1.00
H1       0.92881    0.36217    0.17565   1.00
H1       1.07899    0.60025    0.07901   1.00
H1       0.84170    0.47103    0.15030   1.00
O3       0.98794    0.61430    0.09520   1.00
O3       0.86392    0.52532    0.11571   1.00
Si1      1.02598    0.69017    0.10541   1.00
Si1      0.80049    0.46716    0.10251   1.00
C6       1.02990    0.73602    0.08331   1.00
C6       0.96958    0.69243    0.12341   1.00
C6       1.10834    0.71504    0.11467   1.00
C6       0.80754    0.39812    0.09284   1.00
C6       0.73181    0.43635    0.11956   1.00
C6       0.78443    0.50928    0.08266   1.00
C6       1.05624    0.71739    0.06369   1.00
H2       0.97614    0.71854    0.08044   1.00
C6       1.06640    0.81599    0.08347   1.00
H2       0.92012    0.65334    0.11765   1.00
C6       0.97332    0.67142    0.14578   1.00
C6       0.96468    0.75877    0.12521   1.00
H2       1.13090    0.70217    0.10198   1.00
C6       1.15705    0.79283    0.11893   1.00
C6       1.11645    0.67861    0.13389   1.00
C6       0.86944    0.41453    0.07875   1.00
C6       0.79964    0.34027    0.10756   1.00
H2       0.76270    0.37248    0.08310   1.00
H2       0.74364    0.40839    0.13078   1.00
C6       0.72454    0.49152    0.13187   1.00
C6       0.65931    0.38518    0.11112   1.00
H2       0.75407    0.52881    0.08976   1.00
C6       0.84773    0.57335    0.07367   1.00
C6       0.74182    0.46584    0.06406   1.00
H2       1.02632    0.66295    0.06032   1.00
H2       1.10959    0.73085    0.06527   1.00
H2       1.05217    0.74414    0.05043   1.00
H2       1.04059    0.83333    0.07307   1.00
H2       1.06668    0.83672    0.09836   1.00
H2       1.11930    0.83962    0.07838   1.00
H2       0.92745    0.66096    0.15419   1.00
H2       0.97648    0.62508    0.14654   1.00
H2       1.01701    0.71203    0.15376   1.00
H2       0.95194    0.77263    0.11068   1.00
H2       0.92433    0.75175    0.13575   1.00
H2       1.01246    0.80147    0.13076   1.00
H2       1.13305    0.81297    0.12901   1.00
H2       1.20500    0.80282    0.12593   1.00
H2       1.17180    0.82218    0.10496   1.00
H2       1.11424    0.70275    0.14797   1.00
H2       1.07806    0.62517    0.13496   1.00
H2       1.16595    0.68110    0.13355   1.00
H2       0.91503    0.42672    0.08746   1.00
H2       0.85816    0.37047    0.06928   1.00
H2       0.88158    0.45689    0.06855   1.00
H2       0.79560    0.29703    0.09898   1.00
H2       0.84305    0.35725    0.11770   1.00
H2       0.75353    0.32019    0.11674   1.00
H2       0.68830    0.46775    0.14433   1.00
H2       0.77305    0.52892    0.13867   1.00
H2       0.70645    0.51880    0.12242   1.00
H2       0.65903    0.34346    0.10275   1.00
H2       0.62285    0.36217    0.12358   1.00
H2       0.64044    0.41065    0.10116   1.00
H2       0.88378    0.56083    0.06672   1.00
H2       0.83300    0.59870    0.06231   1.00
H2       0.87431    0.61021    0.08563   1.00
H2       0.72657    0.49525    0.05442   1.00
H2       0.77111    0.44981    0.05469   1.00
H2       0.69506    0.42040    0.06880   1.00
C4       0.51061    0.53925    0.11814   1.00
C4       0.53778    0.51590    0.13377   1.00
C3       0.53545    0.60921    0.11383   1.00
C3       0.58818    0.55999    0.14781   1.00
C3       0.45476    0.49036    0.10627   1.00
C3       0.51378    0.44463    0.13559   1.00
C2       0.45067    0.58236    0.08696   1.00
C2       0.58904    0.46459    0.16523   1.00
C3       0.50610    0.63023    0.09875   1.00
C3       0.61359    0.53514    0.16300   1.00
C3       0.42669    0.51259    0.09087   1.00
C3       0.53792    0.42039    0.15153   1.00
H1       0.57576    0.64695    0.12148   1.00
H1       0.60761    0.61140    0.14751   1.00
C5       0.42751    0.41959    0.10979   1.00
C5       0.46542    0.39783    0.12163   1.00
H1       0.52590    0.68154    0.09641   1.00
H1       0.65044    0.56945    0.17261   1.00
H1       0.38790    0.47693    0.08210   1.00
H1       0.51707    0.36895    0.15342   1.00
O3       0.36699    0.37313    0.10075   1.00
O3       0.45172    0.33117    0.12057   1.00
Si1      0.29516    0.34637    0.11288   1.00
Si1      0.50082    0.31385    0.10670   1.00
C6       0.24038    0.30108    0.09254   1.00
C6       0.29152    0.29057    0.13212   1.00
C6       0.28217    0.41315    0.12118   1.00
C6       0.57122    0.38200    0.09435   1.00
C6       0.53013    0.27536    0.12402   1.00
C6       0.44820    0.25166    0.08889   1.00
C6       0.25700    0.33982    0.07176   1.00
H2       0.25119    0.25966    0.09023   1.00
C6       0.16086    0.26572    0.09487   1.00
H2       0.32466    0.27272    0.12603   1.00
C6       0.32120    0.32105    0.15348   1.00
C6       0.22172    0.22468    0.13649   1.00
H2       0.29446    0.44478    0.10758   1.00
C6       0.20775    0.39397    0.12723   1.00
C6       0.32761    0.46150    0.13874   1.00
C6       0.55714    0.42759    0.07958   1.00
C6       0.63577    0.43183    0.10699   1.00
H2       0.58951    0.35532    0.08471   1.00
H2       0.56458    0.31725    0.13387   1.00
C6       0.47512    0.22064    0.13848   1.00
C6       0.57227    0.24353    0.11534   1.00
H2       0.42616    0.20388    0.09737   1.00
C6       0.38581    0.25632    0.08095   1.00
C6       0.48268    0.24097    0.06973   1.00
H2       0.30947    0.35751    0.06704   1.00
H2       0.24996    0.38411    0.07264   1.00
H2       0.22414    0.30658    0.05967   1.00
H2       0.13611    0.21917    0.08576   1.00
H2       0.14384    0.25160    0.11044   1.00
H2       0.14094    0.29801    0.08951   1.00
H2       0.32920    0.28506    0.16247   1.00
H2       0.37057    0.36745    0.15243   1.00
H2       0.28645    0.33214    0.16195   1.00
H2       0.20093    0.19380    0.12285   1.00
H2       0.22746    0.19200    0.14761   1.00
H2       0.18450    0.23735    0.14254   1.00
H2       0.18681    0.35328    0.13854   1.00
H2       0.20542    0.43752    0.13350   1.00
H2       0.17427    0.37795    0.11411   1.00
H2       0.30643    0.44135    0.15369   1.00
H2       0.37938    0.47075    0.13866   1.00
H2       0.33102    0.51127    0.13739   1.00
H2       0.55275    0.46715    0.08767   1.00
H2       0.59906    0.45339    0.06877   1.00
H2       0.51085    0.39799    0.07075   1.00
H2       0.67800    0.46478    0.09694   1.00
H2       0.62652    0.46513    0.11674   1.00
H2       0.65408    0.40469    0.11640   1.00
H2       0.49960    0.20838    0.15079   1.00
H2       0.44397    0.23938    0.14556   1.00
H2       0.44118    0.17335    0.13052   1.00
H2       0.61344    0.27913    0.10548   1.00
H2       0.59591    0.23034    0.12768   1.00
H2       0.53996    0.19692    0.10682   1.00
H2       0.40124    0.30368    0.07276   1.00
H2       0.35371    0.21374    0.07093   1.00
H2       0.35415    0.25409    0.09362   1.00
H2       0.44679    0.19464    0.06159   1.00
H2       0.50019    0.28367    0.05917   1.00
H2       0.52618    0.23517    0.07380   1.00
C4       0.63483    0.80022    0.71411   1.00
C4       0.68700    0.82384    0.69898   1.00
C3       0.59855    0.83435    0.71911   1.00
C3       0.71236    0.88701    0.68867   1.00
C3       0.61831    0.73970    0.72517   1.00
C3       0.71574    0.78238    0.69368   1.00
C2       0.53240    0.75103    0.74560   1.00
C2       0.79370    0.86870    0.66889   1.00
C3       0.54902    0.81069    0.73449   1.00
C3       0.76378    0.90857    0.67390   1.00
C3       0.56728    0.71596    0.74038   1.00
C3       0.76953    0.80636    0.67939   1.00
H1       0.60687    0.87726    0.71167   1.00
H1       0.69452    0.91942    0.69167   1.00
C5       0.65266    0.70312    0.72092   1.00
C5       0.69116    0.71753    0.70278   1.00
H1       0.52479    0.83777    0.73754   1.00
H1       0.77970    0.95447    0.66681   1.00
H1       0.55464    0.67145    0.74780   1.00
H1       0.79253    0.77809    0.67672   1.00
O3       0.64492    0.65172    0.73377   1.00
O3       0.70830    0.67126    0.69511   1.00
Si1      0.69947    0.66849    0.75213   1.00
Si1      0.66353    0.62180    0.67644   1.00
C6       0.65526    0.58848    0.76431   1.00
C6       0.77594    0.68131    0.74112   1.00
C6       0.70834    0.73472    0.76825   1.00
C6       0.59684    0.63196    0.66631   1.00
C6       0.72499    0.63966    0.65759   1.00
C6       0.63173    0.53702    0.68448   1.00
C6       0.57711    0.55979    0.76786   1.00
H2       0.65831    0.55460    0.75311   1.00
C6       0.68245    0.57462    0.78463   1.00
H2       0.75772    0.65230    0.72705   1.00
C6       0.83066    0.75528    0.73464   1.00
C6       0.81691    0.65206    0.75222   1.00
H2       0.65527    0.72006    0.77126   1.00
C6       0.74202    0.74096    0.78950   1.00
C6       0.74414    0.81001    0.76010   1.00
C6       0.53946    0.62469    0.68104   1.00
C6       0.61441    0.69468    0.65237   1.00
H2       0.57181    0.58858    0.65600   1.00
H2       0.73981    0.69129    0.65271   1.00
C6       0.79261    0.64317    0.66476   1.00
C6       0.70145    0.59430    0.63808   1.00
H2       0.67448    0.52820    0.68227   1.00
C6       0.61330    0.52240    0.70741   1.00
C6       0.57034    0.47897    0.67254   1.00
H2       0.55079    0.55700    0.75370   1.00
H2       0.56830    0.59173    0.77845   1.00
H2       0.55264    0.50806    0.77402   1.00
H2       0.67003    0.52137    0.78526   1.00
H2       0.73737    0.60618    0.78632   1.00
H2       0.65905    0.58308    0.79798   1.00
H2       0.86798    0.75427    0.72433   1.00
H2       0.80816    0.78111    0.72655   1.00
H2       0.85846    0.78603    0.74776   1.00
H2       0.78539    0.59734    0.75485   1.00
H2       0.86022    0.65881    0.74310   1.00
H2       0.83695    0.67771    0.76672   1.00
H2       0.79153    0.74410    0.78797   1.00
H2       0.74973    0.78608    0.79783   1.00
H2       0.70955    0.69800    0.79919   1.00
H2       0.79935    0.83618    0.76214   1.00
H2       0.73483    0.81363    0.74415   1.00
H2       0.72552    0.83938    0.76836   1.00
H2       0.55427    0.67197    0.68916   1.00
H2       0.49307    0.61202    0.67258   1.00
H2       0.52586    0.58436    0.69216   1.00
H2       0.56835    0.68871    0.64507   1.00
H2       0.63677    0.74229    0.66082   1.00
H2       0.64926    0.70015    0.64016   1.00
H2       0.83160    0.66571    0.65294   1.00
H2       0.81342    0.67523    0.67822   1.00
H2       0.78515    0.59280    0.66828   1.00
H2       0.65536    0.59059    0.63162   1.00
H2       0.74090    0.61632    0.62637   1.00
H2       0.69185    0.54287    0.64122   1.00
H2       0.57239    0.53198    0.71177   1.00
H2       0.59786    0.46979    0.71137   1.00
H2       0.65762    0.55502    0.71659   1.00
H2       0.56232    0.42889    0.67692   1.00
H2       0.52301    0.47923    0.67555   1.00
H2       0.57927    0.48366    0.65622   1.00
C4       0.16532    0.36229    0.71493   1.00
C4       0.13610    0.31041    0.69973   1.00
C3       0.21108    0.36468    0.73006   1.00
C3       0.14476    0.25250    0.69926   1.00
C3       0.14735    0.41437    0.71536   1.00
C3       0.09599    0.31626    0.68400   1.00
C2       0.21958    0.46697    0.74576   1.00
C2       0.07403    0.20693    0.66873   1.00
C3       0.23718    0.41532    0.74513   1.00
C3       0.11513    0.20249    0.68408   1.00
C3       0.17523    0.46575    0.73045   1.00
C3       0.06419    0.26384    0.66936   1.00
H1       0.22698    0.32983    0.73054   1.00
H1       0.17249    0.24471    0.71000   1.00
C5       0.10187    0.41497    0.70066   1.00
C5       0.08728    0.37397    0.68305   1.00
H1       0.26969    0.41417    0.75577   1.00
H1       0.12363    0.16201    0.68441   1.00
H1       0.16336    0.50385    0.73023   1.00
H1       0.03212    0.26660    0.65897   1.00
O3       0.07587    0.45805    0.70309   1.00
O3       0.06051    0.38737    0.66597   1.00
Si1      0.00256    0.43066    0.71440   1.00
Si1      0.11147    0.42878    0.64719   1.00
C6       0.00552    0.50994    0.71584   1.00
C6       -0.06147   0.37484    0.69750   1.00
C6       -0.00078   0.39688    0.73878   1.00
C6       0.19827    0.45198    0.64926   1.00
C6       0.07447    0.37294    0.62661   1.00
C6       0.10420    0.50156    0.64267   1.00
C6       0.07406    0.57129    0.72381   1.00
H2       0.00257    0.52124    0.69989   1.00
C6       -0.05236   0.51675    0.72679   1.00
H2       -0.03655   0.39280    0.68283   1.00
C6       -0.08457   0.29720    0.69837   1.00
C6       -0.12913   0.37745    0.69614   1.00
H2       0.04687    0.43605    0.74558   1.00
C6       -0.05912   0.38883    0.75332   1.00
C6       -0.00122   0.32753    0.74096   1.00
C6       0.23967    0.49665    0.66778   1.00
C6       0.21930    0.39616    0.64669   1.00
H2       0.22070    0.48459    0.63601   1.00
H2       0.08372    0.33107    0.62997   1.00
C6       -0.00476   0.33919    0.62442   1.00
C6       0.10526    0.39998    0.60510   1.00
H2       0.05780    0.48243    0.63363   1.00
C6       0.09170    0.53500    0.66163   1.00
C6       0.16183    0.56137    0.63014   1.00
H2       0.11760    0.57791    0.71488   1.00
H2       0.08315    0.56385    0.73964   1.00
H2       0.07358    0.61923    0.72277   1.00
H2       -0.05985   0.55554    0.71926   1.00
H2       -0.10111   0.46956    0.72677   1.00
H2       -0.03972   0.53291    0.74257   1.00
H2       -0.11280   0.27109    0.68467   1.00
H2       -0.04142   0.28866    0.69923   1.00
H2       -0.11797   0.27245    0.71132   1.00
H2       -0.11910   0.42867    0.69252   1.00
H2       -0.16223   0.34427    0.68406   1.00
H2       -0.15776   0.36079    0.71033   1.00
H2       -0.10903   0.35939    0.74613   1.00
H2       -0.06009   0.36321    0.76749   1.00
H2       -0.05187   0.43812    0.75787   1.00
H2       -0.05272   0.28361    0.74021   1.00
H2       0.02862    0.32005    0.72947   1.00
H2       0.02008    0.32538    0.75565   1.00
H2       0.23218    0.46579    0.68124   1.00
H2       0.29430    0.52363    0.66445   1.00
H2       0.22611    0.53517    0.67154   1.00
H2       0.27473    0.41972    0.64550   1.00
H2       0.20349    0.36127    0.65950   1.00
H2       0.19836    0.36629    0.63289   1.00
H2       -0.02418   0.29718    0.61352   1.00
H2       -0.03060   0.31763    0.63881   1.00
H2       -0.01982   0.37547    0.61918   1.00
H2       0.16061    0.42275    0.60503   1.00
H2       0.08504    0.35810    0.59413   1.00
H2       0.09253    0.43779    0.59963   1.00
H2       0.13391    0.55408    0.67237   1.00
H2       0.08381    0.57720    0.65741   1.00
H2       0.04595    0.49772    0.66946   1.00
H2       0.14648    0.59834    0.62575   1.00
H2       0.20896    0.58857    0.63889   1.00
H2       0.17305    0.54322    0.61615   1.00
C4       0.19705    0.83457    0.71487   1.00
C4       0.17435    0.86377    0.69968   1.00
C3       0.15310    0.78631    0.72941   1.00
C3       0.10680    0.85242    0.69866   1.00
C3       0.26774    0.85518    0.71592   1.00
C3       0.22126    0.90669    0.68453   1.00
C2       0.24747    0.78045    0.74574   1.00
C2       0.13280    0.92594    0.66875   1.00
C3       0.17762    0.76026    0.74449   1.00
C3       0.08639    0.88211    0.68352   1.00
C3       0.29126    0.82734    0.73102   1.00
C3       0.20044    0.93844    0.66993   1.00
H1       0.10194    0.76849    0.72942   1.00
H1       0.07055    0.82259    0.70897   1.00
C5       0.31442    0.90324    0.70183   1.00
C5       0.28880    0.91824    0.68412   1.00
H1       0.14350    0.72587    0.75469   1.00
H1       0.03673    0.87161    0.68343   1.00
H1       0.34179    0.84116    0.73124   1.00
H1       0.23576    0.97243    0.65999   1.00
O3       0.38352    0.93142    0.70493   1.00
O3       0.33056    0.94802    0.66751   1.00
Si1      0.42582    1.00381    0.71698   1.00
Si1      0.32525    0.89989    0.64838   1.00
C6       0.50372    1.00413    0.71897   1.00
C6       0.43324    1.06855    0.70053   1.00
C6       0.39181    1.00307    0.74114   1.00
C6       0.26396    0.81207    0.64948   1.00
C6       0.30668    0.93743    0.62788   1.00
C6       0.40718    0.91102    0.64450   1.00
C6       0.49855    0.93601    0.72649   1.00
H2       0.51995    1.00939    0.70316   1.00
C6       0.56593    1.06233    0.73073   1.00
H2       0.42893    1.04551    0.68567   1.00
C6       0.37642    1.08860    0.70112   1.00
C6       0.50212    1.13788    0.70007   1.00
H2       0.38452    0.95541    0.74760   1.00
C6       0.43888    1.06068    0.75637   1.00
C6       0.32118    1.00021    0.74281   1.00
C6       0.26705    0.76976    0.66778   1.00
C6       0.18673    0.78842    0.64622   1.00
H2       0.27688    0.79207    0.63619   1.00
H2       0.25452    0.92577    0.63081   1.00
C6       0.34982    1.01706    0.62649   1.00
C6       0.30669    0.90955    0.60618   1.00
H2       0.43397    0.95853    0.63593   1.00
C6       0.45136    0.92318    0.66386   1.00
C6       0.41342    0.85620    0.63166   1.00
H2       0.46384    0.89284    0.71705   1.00
H2       0.48028    0.92468    0.74214   1.00
H2       0.54809    0.93873    0.72581   1.00
H2       0.61370    1.07251    0.72359   1.00
H2       0.56533    1.11002    0.73099   1.00
H2       0.56830    1.04842    0.74645   1.00
H2       0.37888    1.11777    0.68761   1.00
H2       0.32549    1.04409    0.70135   1.00
H2       0.38227    1.12019    0.71432   1.00
H2       0.54505    1.13031    0.69670   1.00
H2       0.50192    1.17153    0.68819   1.00
H2       0.51144    1.16483    0.71450   1.00
H2       0.45836    1.11112    0.74963   1.00
H2       0.41205    1.05899    0.77036   1.00
H2       0.48163    1.05497    0.76119   1.00
H2       0.32669    1.05092    0.74241   1.00
H2       0.28572    0.97067    0.73088   1.00
H2       0.29651    0.97676    0.75719   1.00
H2       0.24131    0.77457    0.68110   1.00
H2       0.24166    0.71555    0.66393   1.00
H2       0.31920    0.78491    0.67200   1.00
H2       0.15681    0.73300    0.64448   1.00
H2       0.16507    0.80162    0.65897   1.00
H2       0.17823    0.80998    0.63249   1.00
H2       0.32711    1.03621    0.61553   1.00
H2       0.35138    1.04092    0.64104   1.00
H2       0.40216    1.03461    0.62172   1.00
H2       0.27592    0.85406    0.60556   1.00
H2       0.28492    0.92953    0.59518   1.00
H2       0.35835    0.92481    0.60117   1.00
H2       0.42842    0.87977    0.67418   1.00
H2       0.50264    0.93357    0.66006   1.00
H2       0.45706    0.96739    0.67201   1.00
H2       0.46666    0.87398    0.62775   1.00
H2       0.39419    0.80833    0.63999   1.00
H2       0.38553    0.84547    0.61740   1.00
