data_IRMOF10_interpen_symm_ligand4cp_label_k_2.

_audit_creation_method             'generated by an auxiliary program of Tobunporous'

_symmetry_space_group_name_H-M     'P 1'
_symmetry_Int_Tables_number        1
_symmetry_cell_setting             triclinic

_cell_length_a                    22.6523
_cell_length_b                    22.6523
_cell_length_c                    65.9502
_cell_angle_alpha                 90.0000
_cell_angle_beta                  90.0000
_cell_angle_gamma                 120.0000

loop_
_atom_site_label
_atom_site_fract_x
_atom_site_fract_y
_atom_site_fract_z
_atom_site_occupancy
O1       0.00000    0.00000    0.57470   1.00
Zn1      0.00000    0.00000    0.54560   1.00
Zn1      0.94843    0.04287    0.58357   1.00
Zn1      0.09443    0.05157    0.58357   1.00
Zn1      0.95713    0.90557    0.58357   1.00
O2       0.93860    0.02610    0.53560   1.00
O2       0.08750    0.06140    0.53560   1.00
O2       0.97390    0.91250    0.53560   1.00
O2       0.91300    0.07160    0.56150   1.00
O2       0.00463    0.12027    0.60077   1.00
O2       0.87413    0.98077    0.60037   1.00
O2       0.15860    0.08700    0.56150   1.00
O2       0.10663    0.12587    0.60037   1.00
O2       0.11563    0.99537    0.60077   1.00
O2       0.92840    0.84140    0.56150   1.00
O2       0.87973    0.88437    0.60077   1.00
O2       0.01923    0.89337    0.60037   1.00
C1       0.91390    0.06020    0.54330   1.00
C1       0.14630    0.08610    0.54330   1.00
C1       0.93980    0.85370    0.54330   1.00
C1       0.06663    0.14397    0.60637   1.00
C1       0.85603    0.92267    0.60637   1.00
C1       0.07733    0.93337    0.60637   1.00
O1       0.00000    0.00000    0.92530   1.00
Zn1      0.00000    0.00000    0.95440   1.00
Zn1      0.04287    0.94843    0.91643   1.00
Zn1      0.05157    0.09443    0.91643   1.00
Zn1      0.90557    0.95713    0.91643   1.00
O2       0.02610    0.93860    0.96440   1.00
O2       0.06140    0.08750    0.96440   1.00
O2       0.91250    0.97390    0.96440   1.00
O2       0.07160    0.91300    0.93850   1.00
O2       0.12027    0.00463    0.89923   1.00
O2       0.98077    0.87413    0.89963   1.00
O2       0.08700    0.15860    0.93850   1.00
O2       0.12587    0.10663    0.89963   1.00
O2       0.99537    0.11563    0.89923   1.00
O2       0.84140    0.92840    0.93850   1.00
O2       0.88437    0.87973    0.89923   1.00
O2       0.89337    0.01923    0.89963   1.00
C1       0.06020    0.91390    0.95670   1.00
C1       0.08610    0.14630    0.95670   1.00
C1       0.85370    0.93980    0.95670   1.00
C1       0.14397    0.06663    0.89363   1.00
C1       0.92267    0.85603    0.89363   1.00
C1       0.93337    0.07733    0.89363   1.00
O1       0.00000    0.00000    0.42530   1.00
Zn1      0.00000    0.00000    0.45440   1.00
Zn1      0.05157    0.95713    0.41643   1.00
Zn1      0.90557    0.94843    0.41643   1.00
Zn1      0.04287    0.09443    0.41643   1.00
O2       0.06140    0.97390    0.46440   1.00
O2       0.91250    0.93860    0.46440   1.00
O2       0.02610    0.08750    0.46440   1.00
O2       0.08700    0.92840    0.43850   1.00
O2       0.99537    0.87973    0.39923   1.00
O2       0.12587    0.01923    0.39963   1.00
O2       0.84140    0.91300    0.43850   1.00
O2       0.89337    0.87413    0.39963   1.00
O2       0.88437    0.00463    0.39923   1.00
O2       0.07160    0.15860    0.43850   1.00
O2       0.12027    0.11563    0.39923   1.00
O2       0.98077    0.10663    0.39963   1.00
C1       0.08610    0.93980    0.45670   1.00
C1       0.85370    0.91390    0.45670   1.00
C1       0.06020    0.14630    0.45670   1.00
C1       0.93337    0.85603    0.39363   1.00
C1       0.14397    0.07733    0.39363   1.00
C1       0.92267    0.06663    0.39363   1.00
O1       0.00000    0.00000    0.07470   1.00
Zn1      0.00000    0.00000    0.04560   1.00
Zn1      0.95713    0.05157    0.08357   1.00
Zn1      0.94843    0.90557    0.08357   1.00
Zn1      0.09443    0.04287    0.08357   1.00
O2       0.97390    0.06140    0.03560   1.00
O2       0.93860    0.91250    0.03560   1.00
O2       0.08750    0.02610    0.03560   1.00
O2       0.92840    0.08700    0.06150   1.00
O2       0.87973    0.99537    0.10077   1.00
O2       0.01923    0.12587    0.10037   1.00
O2       0.91300    0.84140    0.06150   1.00
O2       0.87413    0.89337    0.10037   1.00
O2       0.00463    0.88437    0.10077   1.00
O2       0.15860    0.07160    0.06150   1.00
O2       0.11563    0.12027    0.10077   1.00
O2       0.10663    0.98077    0.10037   1.00
C1       0.93980    0.08610    0.04330   1.00
C1       0.91390    0.85370    0.04330   1.00
C1       0.14630    0.06020    0.04330   1.00
C1       0.85603    0.93337    0.10637   1.00
C1       0.07733    0.14397    0.10637   1.00
C1       0.06663    0.92267    0.10637   1.00
O1       0.66667    0.33333    0.90803   1.00
Zn1      0.66667    0.33333    0.87893   1.00
Zn1      0.61510    0.37620    0.91690   1.00
Zn1      0.76110    0.38490    0.91690   1.00
Zn1      0.62380    0.23890    0.91690   1.00
O2       0.60527    0.35943    0.86893   1.00
O2       0.75417    0.39473    0.86893   1.00
O2       0.64057    0.24583    0.86893   1.00
O2       0.57967    0.40493    0.89483   1.00
O2       0.67130    0.45360    0.93410   1.00
O2       0.54080    0.31410    0.93370   1.00
O2       0.82527    0.42033    0.89483   1.00
O2       0.77330    0.45920    0.93370   1.00
O2       0.78230    0.32870    0.93410   1.00
O2       0.59507    0.17473    0.89483   1.00
O2       0.54640    0.21770    0.93410   1.00
O2       0.68590    0.22670    0.93370   1.00
C1       0.58057    0.39353    0.87663   1.00
C1       0.81297    0.41943    0.87663   1.00
C1       0.60647    0.18703    0.87663   1.00
C1       0.73330    0.47730    0.93970   1.00
C1       0.52270    0.25600    0.93970   1.00
C1       0.74400    0.26670    0.93970   1.00
O1       0.66667    0.33333    0.25863   1.00
Zn1      0.66667    0.33333    0.28773   1.00
Zn1      0.70953    0.28177    0.24977   1.00
Zn1      0.71823    0.42777    0.24977   1.00
Zn1      0.57223    0.29047    0.24977   1.00
O2       0.69277    0.27193    0.29773   1.00
O2       0.72807    0.42083    0.29773   1.00
O2       0.57917    0.30723    0.29773   1.00
O2       0.73827    0.24633    0.27183   1.00
O2       0.78693    0.33797    0.23257   1.00
O2       0.64743    0.20747    0.23297   1.00
O2       0.75367    0.49193    0.27183   1.00
O2       0.79253    0.43997    0.23297   1.00
O2       0.66203    0.44897    0.23257   1.00
O2       0.50807    0.26173    0.27183   1.00
O2       0.55103    0.21307    0.23257   1.00
O2       0.56003    0.35257    0.23297   1.00
C1       0.72687    0.24723    0.29003   1.00
C1       0.75277    0.47963    0.29003   1.00
C1       0.52037    0.27313    0.29003   1.00
C1       0.81063    0.39997    0.22697   1.00
C1       0.58933    0.18937    0.22697   1.00
C1       0.60003    0.41067    0.22697   1.00
O1       0.66667    0.33333    0.75863   1.00
Zn1      0.66667    0.33333    0.78773   1.00
Zn1      0.71823    0.29047    0.74977   1.00
Zn1      0.57223    0.28177    0.74977   1.00
Zn1      0.70953    0.42777    0.74977   1.00
O2       0.72807    0.30723    0.79773   1.00
O2       0.57917    0.27193    0.79773   1.00
O2       0.69277    0.42083    0.79773   1.00
O2       0.75367    0.26173    0.77183   1.00
O2       0.66203    0.21307    0.73257   1.00
O2       0.79253    0.35257    0.73297   1.00
O2       0.50807    0.24633    0.77183   1.00
O2       0.56003    0.20747    0.73297   1.00
O2       0.55103    0.33797    0.73257   1.00
O2       0.73827    0.49193    0.77183   1.00
O2       0.78693    0.44897    0.73257   1.00
O2       0.64743    0.43997    0.73297   1.00
C1       0.75277    0.27313    0.79003   1.00
C1       0.52037    0.24723    0.79003   1.00
C1       0.72687    0.47963    0.79003   1.00
C1       0.60003    0.18937    0.72697   1.00
C1       0.81063    0.41067    0.72697   1.00
C1       0.58933    0.39997    0.72697   1.00
O1       0.66667    0.33333    0.40803   1.00
Zn1      0.66667    0.33333    0.37893   1.00
Zn1      0.62380    0.38490    0.41690   1.00
Zn1      0.61510    0.23890    0.41690   1.00
Zn1      0.76110    0.37620    0.41690   1.00
O2       0.64057    0.39473    0.36893   1.00
O2       0.60527    0.24583    0.36893   1.00
O2       0.75417    0.35943    0.36893   1.00
O2       0.59507    0.42033    0.39483   1.00
O2       0.54640    0.32870    0.43410   1.00
O2       0.68590    0.45920    0.43370   1.00
O2       0.57967    0.17473    0.39483   1.00
O2       0.54080    0.22670    0.43370   1.00
O2       0.67130    0.21770    0.43410   1.00
O2       0.82527    0.40493    0.39483   1.00
O2       0.78230    0.45360    0.43410   1.00
O2       0.77330    0.31410    0.43370   1.00
C1       0.60647    0.41943    0.37663   1.00
C1       0.58057    0.18703    0.37663   1.00
C1       0.81297    0.39353    0.37663   1.00
C1       0.52270    0.26670    0.43970   1.00
C1       0.74400    0.47730    0.43970   1.00
C1       0.73330    0.25600    0.43970   1.00
O1       0.33333    0.66667    0.24137   1.00
Zn1      0.33333    0.66667    0.21227   1.00
Zn1      0.28177    0.70953    0.25023   1.00
Zn1      0.42777    0.71823    0.25023   1.00
Zn1      0.29047    0.57223    0.25023   1.00
O2       0.27193    0.69277    0.20227   1.00
O2       0.42083    0.72807    0.20227   1.00
O2       0.30723    0.57917    0.20227   1.00
O2       0.24633    0.73827    0.22817   1.00
O2       0.33797    0.78693    0.26743   1.00
O2       0.20747    0.64743    0.26703   1.00
O2       0.49193    0.75367    0.22817   1.00
O2       0.43997    0.79253    0.26703   1.00
O2       0.44897    0.66203    0.26743   1.00
O2       0.26173    0.50807    0.22817   1.00
O2       0.21307    0.55103    0.26743   1.00
O2       0.35257    0.56003    0.26703   1.00
C1       0.24723    0.72687    0.20997   1.00
C1       0.47963    0.75277    0.20997   1.00
C1       0.27313    0.52037    0.20997   1.00
C1       0.39997    0.81063    0.27303   1.00
C1       0.18937    0.58933    0.27303   1.00
C1       0.41067    0.60003    0.27303   1.00
O1       0.33333    0.66667    0.59197   1.00
Zn1      0.33333    0.66667    0.62107   1.00
Zn1      0.37620    0.61510    0.58310   1.00
Zn1      0.38490    0.76110    0.58310   1.00
Zn1      0.23890    0.62380    0.58310   1.00
O2       0.35943    0.60527    0.63107   1.00
O2       0.39473    0.75417    0.63107   1.00
O2       0.24583    0.64057    0.63107   1.00
O2       0.40493    0.57967    0.60517   1.00
O2       0.45360    0.67130    0.56590   1.00
O2       0.31410    0.54080    0.56630   1.00
O2       0.42033    0.82527    0.60517   1.00
O2       0.45920    0.77330    0.56630   1.00
O2       0.32870    0.78230    0.56590   1.00
O2       0.17473    0.59507    0.60517   1.00
O2       0.21770    0.54640    0.56590   1.00
O2       0.22670    0.68590    0.56630   1.00
C1       0.39353    0.58057    0.62337   1.00
C1       0.41943    0.81297    0.62337   1.00
C1       0.18703    0.60647    0.62337   1.00
C1       0.47730    0.73330    0.56030   1.00
C1       0.25600    0.52270    0.56030   1.00
C1       0.26670    0.74400    0.56030   1.00
O1       0.33333    0.66667    0.09197   1.00
Zn1      0.33333    0.66667    0.12107   1.00
Zn1      0.38490    0.62380    0.08310   1.00
Zn1      0.23890    0.61510    0.08310   1.00
Zn1      0.37620    0.76110    0.08310   1.00
O2       0.39473    0.64057    0.13107   1.00
O2       0.24583    0.60527    0.13107   1.00
O2       0.35943    0.75417    0.13107   1.00
O2       0.42033    0.59507    0.10517   1.00
O2       0.32870    0.54640    0.06590   1.00
O2       0.45920    0.68590    0.06630   1.00
O2       0.17473    0.57967    0.10517   1.00
O2       0.22670    0.54080    0.06630   1.00
O2       0.21770    0.67130    0.06590   1.00
O2       0.40493    0.82527    0.10517   1.00
O2       0.45360    0.78230    0.06590   1.00
O2       0.31410    0.77330    0.06630   1.00
C1       0.41943    0.60647    0.12337   1.00
C1       0.18703    0.58057    0.12337   1.00
C1       0.39353    0.81297    0.12337   1.00
C1       0.26670    0.52270    0.06030   1.00
C1       0.47730    0.74400    0.06030   1.00
C1       0.25600    0.73330    0.06030   1.00
O1       0.33333    0.66667    0.74137   1.00
Zn1      0.33333    0.66667    0.71227   1.00
Zn1      0.29047    0.71823    0.75023   1.00
Zn1      0.28177    0.57223    0.75023   1.00
Zn1      0.42777    0.70953    0.75023   1.00
O2       0.30723    0.72807    0.70227   1.00
O2       0.27193    0.57917    0.70227   1.00
O2       0.42083    0.69277    0.70227   1.00
O2       0.26173    0.75367    0.72817   1.00
O2       0.21307    0.66203    0.76743   1.00
O2       0.35257    0.79253    0.76703   1.00
O2       0.24633    0.50807    0.72817   1.00
O2       0.20747    0.56003    0.76703   1.00
O2       0.33797    0.55103    0.76743   1.00
O2       0.49193    0.73827    0.72817   1.00
O2       0.44897    0.78693    0.76743   1.00
O2       0.43997    0.64743    0.76703   1.00
C1       0.27313    0.75277    0.70997   1.00
C1       0.24723    0.52037    0.70997   1.00
C1       0.47963    0.72687    0.70997   1.00
C1       0.18937    0.60003    0.77303   1.00
C1       0.41067    0.81063    0.77303   1.00
C1       0.39997    0.58933    0.77303   1.00
C4       0.84491    0.64143    0.48428   1.00
C4       0.86779    0.69081    0.50021   1.00
C3       0.88921    0.64302    0.46867   1.00
C3       0.93780    0.74079    0.50286   1.00
C3       0.77520    0.58813    0.48368   1.00
C3       0.81953    0.69092    0.51418   1.00
C2       0.79950    0.53968    0.45263   1.00
C2       0.91372    0.79281    0.53180   1.00
C3       0.86741    0.59357    0.45337   1.00
C3       0.96015    0.79049    0.51809   1.00
C3       0.75513    0.53854    0.46791   1.00
C3       0.84434    0.74263    0.52941   1.00
H1       0.93883    0.68056    0.46772   1.00
H1       0.97527    0.74253    0.49394   1.00
C5       0.72754    0.58551    0.49848   1.00
C5       0.74875    0.64011    0.51280   1.00
H1       0.90194    0.59742    0.44261   1.00
H1       1.01130    0.82528    0.51915   1.00
H1       0.70612    0.49961    0.46706   1.00
H1       0.81153    0.74466    0.53954   1.00
C6       0.65583    0.52490    0.49896   1.00
C6       0.69734    0.64519    0.52628   1.00
H2       0.65815    0.47829    0.49708   1.00
H2       0.70867    0.69796    0.52661   1.00
H2       0.63307    0.51747    0.51393   1.00
H2       0.64661    0.61948    0.51964   1.00
C6       0.60723    0.52990    0.48299   1.00
C6       0.69358    0.61658    0.54818   1.00
H2       0.63370    0.54713    0.46846   1.00
H2       0.74517    0.63455    0.55386   1.00
C6       0.53693    0.46415    0.47896   1.00
C6       0.65393    0.63272    0.56468   1.00
H2       0.59760    0.57041    0.48789   1.00
H2       0.67036    0.56124    0.54701   1.00
C6       0.54589    0.40725    0.46886   1.00
C6       0.69008    0.70999    0.56966   1.00
C6       0.49506    0.43624    0.49874   1.00
C6       0.57954    0.60820    0.55807   1.00
C6       0.49519    0.48248    0.46414   1.00
C6       0.65157    0.59451    0.58449   1.00
H2       0.57623    0.42569    0.45501   1.00
H2       0.74310    0.72914    0.57406   1.00
H2       0.57124    0.38890    0.47898   1.00
H2       0.68983    0.73965    0.55670   1.00
H2       0.49666    0.36348    0.46483   1.00
H2       0.66474    0.72011    0.58214   1.00
H2       0.44428    0.39340    0.49556   1.00
H2       0.55095    0.61525    0.57024   1.00
H2       0.51997    0.41821    0.50917   1.00
H2       0.57820    0.63686    0.54497   1.00
H2       0.48922    0.47576    0.50637   1.00
H2       0.55335    0.55424    0.55407   1.00
H2       0.52224    0.50183    0.44980   1.00
H2       0.70296    0.61054    0.58994   1.00
H2       0.44571    0.43798    0.46074   1.00
H2       0.62470    0.60458    0.59654   1.00
H2       0.48596    0.52152    0.47060   1.00
H2       0.62536    0.53949    0.58205   1.00
C4       0.34967    0.18964    0.48156   1.00
C4       0.29653    0.16232    0.49639   1.00
C3       0.40221    0.17247    0.48104   1.00
C3       0.28809    0.11064    0.51035   1.00
C3       0.35119    0.23604    0.46658   1.00
C3       0.24949    0.18695    0.49749   1.00
C2       0.45526    0.24222    0.45098   1.00
C2       0.19114    0.10942    0.52703   1.00
C3       0.45325    0.19763    0.46618   1.00
C3       0.23727    0.08516    0.52528   1.00
C3       0.40382    0.26021    0.45164   1.00
C3       0.19868    0.15993    0.51299   1.00
H1       0.40577    0.14159    0.49157   1.00
H1       0.31814    0.08909    0.51007   1.00
C5       0.30133    0.25744    0.46684   1.00
C5       0.25364    0.23688    0.48329   1.00
H1       0.48953    0.18309    0.46659   1.00
H1       0.23405    0.04810    0.53495   1.00
H1       0.40632    0.29291    0.44065   1.00
H1       0.16461    0.17651    0.51434   1.00
C6       0.29918    0.30073    0.44967   1.00
C6       0.20828    0.26773    0.48598   1.00
H2       0.30515    0.28048    0.43530   1.00
H2       0.20758    0.27977    0.50195   1.00
H2       0.24877    0.29484    0.44796   1.00
H2       0.23033    0.31789    0.47904   1.00
C6       0.35283    0.37841    0.45204   1.00
C6       0.13443    0.22159    0.47745   1.00
H2       0.40183    0.38430    0.45668   1.00
H2       0.11554    0.16869    0.48198   1.00
C6       0.36579    0.42557    0.43322   1.00
C6       0.07903    0.24065    0.48332   1.00
H2       0.33664    0.39810    0.46470   1.00
H2       0.13793    0.22168    0.46092   1.00
C6       0.39933    0.40788    0.41550   1.00
C6       0.06291    0.23116    0.50635   1.00
C6       0.29902    0.42134    0.42565   1.00
C6       0.10094    0.31489    0.47722   1.00
C6       0.41566    0.50048    0.43956   1.00
C6       0.01215    0.19229    0.47180   1.00
H2       0.44607    0.40932    0.42045   1.00
H2       0.04833    0.17953    0.51121   1.00
H2       0.36522    0.35722    0.40945   1.00
H2       0.10670    0.26671    0.51536   1.00
H2       0.41247    0.44396    0.40302   1.00
H2       0.02098    0.23999    0.51006   1.00
H2       0.30930    0.45794    0.41348   1.00
H2       0.06004    0.32607    0.48004   1.00
H2       0.26386    0.37074    0.41971   1.00
H2       0.14520    0.35129    0.48593   1.00
H2       0.27363    0.43218    0.43795   1.00
H2       0.11397    0.32333    0.46114   1.00
H2       0.46404    0.50643    0.44484   1.00
H2       -0.00597   0.13910    0.47574   1.00
H2       0.42668    0.53542    0.42686   1.00
H2       -0.02833   0.20333    0.47552   1.00
H2       0.39423    0.51648    0.45177   1.00
H2       0.01990    0.19763    0.45541   1.00
C4       0.80938    0.15831    0.48136   1.00
C4       0.83614    0.13207    0.49623   1.00
C3       0.83660    0.22957    0.47827   1.00
C3       0.89626    0.17491    0.50754   1.00
C3       0.75320    0.11228    0.46898   1.00
C3       0.80219    0.06037    0.50011   1.00
C2       0.75749    0.21145    0.45061   1.00
C2       0.88843    0.07945    0.52701   1.00
C3       0.81176    0.25545    0.46331   1.00
C3       0.92152    0.14957    0.52254   1.00
C3       0.72965    0.14071    0.45384   1.00
C3       0.82935    0.03666    0.51560   1.00
H1       0.87505    0.26534    0.48691   1.00
H1       0.92435    0.22605    0.50517   1.00
C5       0.72181    0.04004    0.47195   1.00
C5       0.74308    0.01438    0.48862   1.00
H1       0.83378    0.30737    0.46179   1.00
H1       0.96497    0.18317    0.53023   1.00
H1       0.69012    0.10962    0.44465   1.00
H1       0.80638    -0.01392   0.51889   1.00
C6       0.66729    -0.00812   0.45736   1.00
C6       0.70353    -0.06034   0.49435   1.00
H2       0.68323    0.00987    0.44190   1.00
H2       0.69802    -0.06471   0.51078   1.00
H2       0.66399    -0.05767   0.45695   1.00
H2       0.65068    -0.08414   0.48946   1.00
C6       0.59495    -0.01833   0.46214   1.00
C6       0.73587    -0.10239   0.48580   1.00
H2       0.59938    0.03101    0.46549   1.00
H2       0.79108    -0.07382   0.48807   1.00
C6       0.53818    -0.05445   0.44565   1.00
C6       0.70862    -0.17602   0.49437   1.00
H2       0.57704    -0.04752   0.47620   1.00
H2       0.72868    -0.10599   0.46937   1.00
C6       0.55463    -0.01066   0.42614   1.00
C6       0.72665    -0.17477   0.51712   1.00
C6       0.52751    -0.12558   0.44006   1.00
C6       0.63047    -0.22092   0.49160   1.00
C6       0.46997    -0.06451   0.45431   1.00
C6       0.74314    -0.20997   0.48253   1.00
H2       0.56355    0.04032    0.42963   1.00
H2       0.78142    -0.14255   0.51964   1.00
H2       0.59986    -0.00505   0.41855   1.00
H2       0.70060    -0.15533   0.52652   1.00
H2       0.51264    -0.03400   0.41531   1.00
H2       0.71166    -0.22586   0.52259   1.00
H2       0.48462    -0.15231   0.42966   1.00
H2       0.61272    -0.27340   0.49628   1.00
H2       0.57254    -0.12110   0.43261   1.00
H2       0.60344    -0.20188   0.50074   1.00
H2       0.51725    -0.15697   0.45359   1.00
H2       0.61625    -0.22151   0.47576   1.00
H2       0.47453    -0.01561   0.45832   1.00
H2       0.79851    -0.18058   0.48417   1.00
H2       0.42873    -0.08921   0.44328   1.00
H2       0.72604    -0.26147   0.48807   1.00
H2       0.45487    -0.09626   0.46791   1.00
H2       0.73116    -0.21360   0.46639   1.00
C4       0.64101    0.84405    0.01560   1.00
C4       0.69044    0.86670    -0.00031   1.00
C3       0.63851    0.88976    0.02997   1.00
C3       0.73609    0.93711    -0.00426   1.00
C3       0.59186    0.77314    0.01746   1.00
C3       0.69506    0.81778    -0.01292   1.00
C2       0.53898    0.79876    0.04717   1.00
C2       0.79266    0.91253    -0.03183   1.00
C3       0.58891    0.86798    0.04522   1.00
C3       0.78590    0.95945    -0.01946   1.00
C3       0.54196    0.75310    0.03314   1.00
C3       0.74675    0.84263    -0.02816   1.00
H1       0.67307    0.94051    0.03001   1.00
H1       0.73440    0.97482    0.00363   1.00
C5       0.59358    0.72434    0.00397   1.00
C5       0.64862    0.74627    -0.01022   1.00
H1       0.58970    0.90353    0.05506   1.00
H1       0.81745    1.01093    -0.02150   1.00
H1       0.50588    0.70320    0.03486   1.00
H1       0.75193    0.80941    -0.03734   1.00
C6       0.53701    0.65060    0.00473   1.00
C6       0.65872    0.69494    -0.02220   1.00
H2       0.48817    0.64884    0.00598   1.00
H2       0.71271    0.71056    -0.02220   1.00
H2       0.53141    0.62489    -0.00966   1.00
H2       0.63658    0.64599    -0.01450   1.00
C6       0.54668    0.60871    0.02204   1.00
C6       0.62928    0.68364    -0.04427   1.00
H2       0.56216    0.63875    0.03600   1.00
H2       0.64326    0.73289    -0.05112   1.00
C6       0.48461    0.53685    0.02718   1.00
C6       0.64984    0.64380    -0.05944   1.00
H2       0.58985    0.60227    0.01790   1.00
H2       0.57371    0.65671    -0.04313   1.00
C6       0.42439    0.54232    0.03632   1.00
C6       0.72710    0.68417    -0.06446   1.00
C6       0.45943    0.49001    0.00827   1.00
C6       0.63114    0.57255    -0.05112   1.00
C6       0.50755    0.50246    0.04331   1.00
C6       0.61026    0.63340    -0.07958   1.00
H2       0.44078    0.57598    0.04952   1.00
H2       0.74217    0.73518    -0.07007   1.00
H2       0.40293    0.56228    0.02532   1.00
H2       0.75803    0.68971    -0.05118   1.00
H2       0.38329    0.49250    0.04116   1.00
H2       0.74005    0.65824    -0.07609   1.00
H2       0.41944    0.43861    0.01231   1.00
H2       0.64117    0.54333    -0.06239   1.00
H2       0.43835    0.50951    -0.00302   1.00
H2       0.66112    0.57699    -0.03768   1.00
H2       0.50121    0.48644    0.00129   1.00
H2       0.57726    0.54358    -0.04706   1.00
H2       0.52519    0.53321    0.05710   1.00
H2       0.62223    0.68233    -0.08622   1.00
H2       0.46571    0.45218    0.04751   1.00
H2       0.62328    0.60612    -0.09074   1.00
H2       0.54915    0.49590    0.03759   1.00
H2       0.55528    0.60396    -0.07709   1.00
C4       0.18965    0.34966    0.01844   1.00
C4       0.16234    0.29652    0.00362   1.00
C3       0.17235    0.40210    0.01899   1.00
C3       0.11054    0.28798    -0.01032   1.00
C3       0.23619    0.35128    0.03339   1.00
C3       0.18710    0.24959    0.00248   1.00
C2       0.24223    0.45524    0.04902   1.00
C2       0.10944    0.19114    -0.02703   1.00
C3       0.19749    0.45314    0.03386   1.00
C3       0.08506    0.23716    -0.02525   1.00
C3       0.26035    0.40390    0.04834   1.00
C3       0.16008    0.19878    -0.01302   1.00
H1       0.14136    0.40559    0.00849   1.00
H1       0.08890    0.31794    -0.01001   1.00
C5       0.25773    0.30152    0.03310   1.00
C5       0.23715    0.25385    0.01665   1.00
H1       0.18285    0.48934    0.03347   1.00
H1       0.04792    0.23386    -0.03490   1.00
H1       0.29314    0.40647    0.05930   1.00
H1       0.17674    0.16479    -0.01440   1.00
C6       0.30116    0.29948    0.05024   1.00
C6       0.26813    0.20861    0.01392   1.00
H2       0.28095    0.30539    0.06462   1.00
H2       0.28009    0.20794    -0.00206   1.00
H2       0.29539    0.24911    0.05194   1.00
H2       0.31833    0.23075    0.02084   1.00
C6       0.37880    0.35324    0.04784   1.00
C6       0.22215    0.13474    0.02246   1.00
H2       0.38456    0.40221    0.04321   1.00
H2       0.16921    0.11575    0.01795   1.00
C6       0.42608    0.36629    0.06662   1.00
C6       0.24133    0.07945    0.01655   1.00
H2       0.39848    0.33712    0.03516   1.00
H2       0.22233    0.13824    0.03899   1.00
C6       0.40839    0.39975    0.08437   1.00
C6       0.23174    0.06332    -0.00648   1.00
C6       0.42205    0.29959    0.07418   1.00
C6       0.31563    0.10150    0.02261   1.00
C6       0.50093    0.41628    0.06026   1.00
C6       0.19313    0.01253    0.02808   1.00
H2       0.40970    0.44644    0.07944   1.00
H2       0.18005    0.04865    -0.01131   1.00
H2       0.35779    0.36556    0.09044   1.00
H2       0.26717    0.10716    -0.01549   1.00
H2       0.44456    0.41296    0.09684   1.00
H2       0.24065    0.02147    -0.01021   1.00
H2       0.45874    0.30994    0.08632   1.00
H2       0.32691    0.06067    0.01976   1.00
H2       0.37150    0.26435    0.08014   1.00
H2       0.35193    0.14579    0.01389   1.00
H2       0.43289    0.27425    0.06186   1.00
H2       0.32415    0.11453    0.03868   1.00
H2       0.50675    0.46462    0.05498   1.00
H2       0.13990    -0.00569   0.02417   1.00
H2       0.53595    0.42736    0.07294   1.00
H2       0.20426    -0.02788   0.02434   1.00
H2       0.51693    0.39491    0.04803   1.00
H2       0.19856    0.02028    0.04447   1.00
C4       0.15831    0.80938    0.01864   1.00
C4       0.13207    0.83614    0.00377   1.00
C3       0.22957    0.83660    0.02173   1.00
C3       0.17491    0.89626    -0.00754   1.00
C3       0.11228    0.75320    0.03102   1.00
C3       0.06037    0.80220    -0.00011   1.00
C2       0.21145    0.75749    0.04939   1.00
C2       0.07945    0.88843    -0.02701   1.00
C3       0.25545    0.81176    0.03669   1.00
C3       0.14957    0.92152    -0.02254   1.00
C3       0.14071    0.72965    0.04616   1.00
C3       0.03666    0.82936    -0.01559   1.00
H1       0.26534    0.87505    0.01309   1.00
H1       0.22605    0.92435    -0.00517   1.00
C5       0.04004    0.72181    0.02805   1.00
C5       0.01438    0.74308    0.01139   1.00
H1       0.30737    0.83378    0.03821   1.00
H1       0.18317    0.96496    -0.03023   1.00
H1       0.10962    0.69012    0.05535   1.00
H1       -0.01392   0.80638    -0.01889   1.00
C6       -0.00812   0.66730    0.04264   1.00
C6       -0.06034   0.70353    0.00566   1.00
H2       0.00988    0.68324    0.05810   1.00
H2       -0.06471   0.69802    -0.01078   1.00
H2       -0.05767   0.66399    0.04305   1.00
H2       -0.08415   0.65069    0.01054   1.00
C6       -0.01833   0.59495    0.03787   1.00
C6       -0.10238   0.73587    0.01420   1.00
H2       0.03100    0.59938    0.03451   1.00
H2       -0.07381   0.79108    0.01193   1.00
C6       -0.05445   0.53818    0.05435   1.00
C6       -0.17602   0.70863    0.00563   1.00
H2       -0.04753   0.57704    0.02380   1.00
H2       -0.10598   0.72869    0.03063   1.00
C6       -0.01066   0.55463    0.07386   1.00
C6       -0.17477   0.72666    -0.01712   1.00
C6       -0.12558   0.52752    0.05995   1.00
C6       -0.22092   0.63048    0.00841   1.00
C6       -0.06452   0.46998    0.04569   1.00
C6       -0.20996   0.74315    0.01747   1.00
H2       0.04032    0.56355    0.07037   1.00
H2       -0.14255   0.78143    -0.01964   1.00
H2       -0.00505   0.59986    0.08145   1.00
H2       -0.15533   0.70060    -0.02652   1.00
H2       -0.03400   0.51264    0.08469   1.00
H2       -0.22586   0.71167    -0.02258   1.00
H2       -0.15231   0.48463    0.07034   1.00
H2       -0.27340   0.61274    0.00372   1.00
H2       -0.12110   0.57255    0.06740   1.00
H2       -0.20188   0.60345    -0.00074   1.00
H2       -0.15697   0.51726    0.04641   1.00
H2       -0.22151   0.61626    0.02425   1.00
H2       -0.01562   0.47453    0.04168   1.00
H2       -0.18057   0.79852    0.01583   1.00
H2       -0.08922   0.42874    0.05673   1.00
H2       -0.26147   0.72605    0.01193   1.00
H2       -0.09626   0.45488    0.03209   1.00
H2       -0.21359   0.73117    0.03362   1.00
C4       0.15630    0.34840    0.51878   1.00
C4       0.13373    0.29637    0.50366   1.00
C3       0.11023    0.36168    0.52991   1.00
C3       0.06337    0.24940    0.50010   1.00
C3       0.22747    0.38928    0.52313   1.00
C3       0.18270    0.29024    0.49150   1.00
C2       0.20156    0.45137    0.55007   1.00
C2       0.08794    0.19325    0.47240   1.00
C3       0.13201    0.41132    0.54515   1.00
C3       0.04103    0.19960    0.48490   1.00
C3       0.24752    0.43906    0.53884   1.00
C3       0.15783    0.23907    0.47610   1.00
H1       0.05918    0.33624    0.52722   1.00
H1       0.02572    0.24918    0.50856   1.00
C5       0.27652    0.38023    0.51184   1.00
C5       0.25430    0.33420    0.49494   1.00
H1       0.09621    0.41823    0.55268   1.00
H1       -0.01044   0.16744    0.48304   1.00
H1       0.29763    0.46880    0.54246   1.00
H1       0.19107    0.23345    0.46706   1.00
C6       0.35085    0.41870    0.51804   1.00
C6       0.30537    0.33201    0.48059   1.00
H2       0.35427    0.41694    0.53449   1.00
H2       0.28804    0.32976    0.46504   1.00
H2       0.37761    0.39247    0.51322   1.00
H2       0.35347    0.37991    0.48055   1.00
C6       0.38997    0.49377    0.50988   1.00
C6       0.31958    0.27238    0.48528   1.00
H2       0.35864    0.51752    0.51206   1.00
H2       0.27141    0.22562    0.48827   1.00
C6       0.46224    0.54284    0.51894   1.00
C6       0.35930    0.25571    0.46894   1.00
H2       0.39506    0.49148    0.49346   1.00
H2       0.34795    0.28435    0.49952   1.00
C6       0.45827    0.55765    0.54172   1.00
C6       0.31732    0.22759    0.44915   1.00
C6       0.51087    0.51377    0.51632   1.00
C6       0.42909    0.31903    0.46385   1.00
C6       0.49362    0.61184    0.50743   1.00
C6       0.37283    0.19970    0.47752   1.00
H2       0.42343    0.57721    0.54411   1.00
H2       0.26726    0.18347    0.45227   1.00
H2       0.44052    0.51191    0.55091   1.00
H2       0.30951    0.26594    0.44162   1.00
H2       0.50820    0.59552    0.54753   1.00
H2       0.34335    0.21171    0.43840   1.00
H2       0.56237    0.55045    0.52136   1.00
H2       0.45842    0.30574    0.45357   1.00
H2       0.49358    0.46751    0.52527   1.00
H2       0.42237    0.35835    0.45647   1.00
H2       0.51347    0.50155    0.50046   1.00
H2       0.45911    0.34069    0.47760   1.00
H2       0.46154    0.63496    0.50898   1.00
H2       0.32503    0.15347    0.48118   1.00
H2       0.54409    0.64809    0.51332   1.00
H2       0.40014    0.18595    0.46658   1.00
H2       0.49904    0.60495    0.49129   1.00
H2       0.40352    0.21704    0.49132   1.00
C4       0.65088    0.80971    0.51859   1.00
C4       0.70231    0.83908    0.50329   1.00
C3       0.65039    0.76410    0.53357   1.00
C3       0.76060    0.83065    0.50317   1.00
C3       0.59743    0.82591    0.51915   1.00
C3       0.69611    0.87864    0.48740   1.00
C2       0.54879    0.75290    0.55014   1.00
C2       0.80466    0.89564    0.47181   1.00
C3       0.60117    0.73677    0.54894   1.00
C3       0.81010    0.85773    0.48787   1.00
C3       0.54849    0.79730    0.53512   1.00
C3       0.74745    0.90502    0.47205   1.00
H1       0.68540    0.74849    0.53375   1.00
H1       0.76962    0.80509    0.51430   1.00
C5       0.59359    0.86925    0.50397   1.00
C5       0.64006    0.89129    0.48719   1.00
H1       0.60380    0.70439    0.55933   1.00
H1       0.85079    0.84961    0.48861   1.00
H1       0.50999    0.80799    0.53610   1.00
H1       0.74457    0.93300    0.46043   1.00
C6       0.54116    0.89177    0.50599   1.00
C6       0.63024    0.92697    0.46917   1.00
H2       0.53997    0.90627    0.52168   1.00
H2       0.63833    0.90602    0.45525   1.00
H2       0.55690    0.93947    0.49807   1.00
H2       0.57733    0.91402    0.46754   1.00
C6       0.46853    0.83697    0.49835   1.00
C6       0.67639    1.00652    0.47001   1.00
H2       0.45636    0.78667    0.50393   1.00
H2       0.72803    1.01992    0.47457   1.00
C6       0.40737    0.84793    0.50377   1.00
C6       0.68195    1.04754    0.45029   1.00
H2       0.47094    0.83390    0.48186   1.00
H2       0.65737    1.02512    0.48223   1.00
C6       0.39341    0.84202    0.52693   1.00
C6       0.71873    1.03212    0.43300   1.00
C6       0.41959    0.91793    0.49620   1.00
C6       0.61095    1.03250    0.44276   1.00
C6       0.34223    0.79143    0.49320   1.00
C6       0.72479    1.12488    0.45514   1.00
H2       0.38566    0.79356    0.53281   1.00
H2       0.76862    1.04118    0.43795   1.00
H2       0.43562    0.88291    0.53523   1.00
H2       0.68920    0.97937    0.42796   1.00
H2       0.34786    0.84500    0.53042   1.00
H2       0.72657    1.06439    0.41982   1.00
H2       0.37472    0.92303    0.49876   1.00
H2       0.61569    1.06491    0.42989   1.00
H2       0.46215    0.95961    0.50420   1.00
H2       0.58030    0.97967    0.43783   1.00
H2       0.43097    0.92399    0.48000   1.00
H2       0.58337    1.04158    0.45480   1.00
H2       0.33087    0.74084    0.49820   1.00
H2       0.77581    1.13840    0.46033   1.00
H2       0.29790    0.79665    0.49665   1.00
H2       0.73051    1.15575    0.44177   1.00
H2       0.34842    0.79382    0.47675   1.00
H2       0.70069    1.13925    0.46698   1.00
C4       0.19037    0.84130    0.51861   1.00
C4       0.16099    0.86339    0.50332   1.00
C3       0.23683    0.88663    0.53339   1.00
C3       0.17031    0.93045    0.50303   1.00
C3       0.17331    0.77141    0.51935   1.00
C3       0.12051    0.81730    0.48761   1.00
C2       0.24724    0.79604    0.55014   1.00
C2       0.10438    0.90917    0.47184   1.00
C3       0.26419    0.86475    0.54875   1.00
C3       0.14321    0.95286    0.48773   1.00
C3       0.20199    0.75111    0.53531   1.00
C3       0.09413    0.84225    0.47225   1.00
H1       0.25305    0.93739    0.53343   1.00
H1       0.19657    0.96531    0.51403   1.00
C5       0.12908    0.72397    0.50437   1.00
C5       0.10696    0.74829    0.48757   1.00
H1       0.29720    0.89993    0.55901   1.00
H1       0.15199    1.00193    0.48835   1.00
H1       0.19071    0.70177    0.53643   1.00
H1       0.06550    0.81115    0.46076   1.00
C6       0.10572    0.64889    0.50660   1.00
C6       0.07025    0.70232    0.46973   1.00
H2       0.09166    0.63387    0.52235   1.00
H2       0.09097    0.73077    0.45571   1.00
H2       0.05764    0.61711    0.49884   1.00
H2       0.08248    0.66184    0.46817   1.00
C6       0.15960    0.62988    0.49889   1.00
C6       -0.00917   0.66986    0.47080   1.00
H2       0.21028    0.66775    0.50429   1.00
H2       -0.02177   0.70873    0.47530   1.00
C6       0.14788    0.55760    0.50450   1.00
C6       -0.05110   0.63402    0.45125   1.00
H2       0.16215    0.63475    0.48238   1.00
H2       -0.02775   0.63268    0.48314   1.00
C6       0.15445    0.55024    0.52766   1.00
C6       -0.03565   0.68575    0.43381   1.00
C6       0.07730    0.50015    0.49719   1.00
C6       -0.03723   0.57718    0.44381   1.00
C6       0.20347    0.54771    0.49383   1.00
C6       -0.12820   0.60057    0.45632   1.00
H2       0.20335    0.59077    0.53336   1.00
H2       -0.04388   0.72718    0.43868   1.00
H2       0.11417    0.55248    0.53604   1.00
H2       0.01687    0.70819    0.42861   1.00
H2       0.15092    0.50155    0.53126   1.00
H2       -0.06850   0.66112    0.42075   1.00
H2       0.07161    0.44999    0.49987   1.00
H2       -0.07025   0.54931    0.43107   1.00
H2       0.03621    0.50192    0.50527   1.00
H2       0.01535    0.59858    0.43872   1.00
H2       0.07079    0.50500    0.48100   1.00
H2       -0.04635   0.54083    0.45595   1.00
H2       0.25443    0.58667    0.49864   1.00
H2       -0.14089   0.63872    0.46146   1.00
H2       0.19770    0.49801    0.49740   1.00
H2       -0.15967   0.57520    0.44307   1.00
H2       0.20058    0.55097    0.47738   1.00
H2       -0.14259   0.56246    0.46828   1.00
C4       0.35883    0.15561    0.98436   1.00
C4       0.30749    0.12892    0.99973   1.00
C3       0.41505    0.22355    0.98496   1.00
C3       0.31250    0.16568    1.01780   1.00
C3       0.35457    0.11351    0.96761   1.00
C3       0.24858    0.06298    0.99721   1.00
C2       0.46448    0.20858    0.95380   1.00
C2       0.20212    0.07643    1.03038   1.00
C3       0.46650    0.24923    0.97022   1.00
C3       0.26134    0.14050    1.03263   1.00
C3       0.40822    0.14148    0.95298   1.00
C3       0.19746    0.03934    1.01261   1.00
H1       0.42036    0.25715    0.99602   1.00
H1       0.35383    0.21184    1.02096   1.00
C5       0.29769    0.04564    0.96573   1.00
C5       0.24202    0.02237    0.97975   1.00
H1       0.50584    0.29858    0.97156   1.00
H1       0.26789    0.16962    1.04528   1.00
H1       0.40723    0.11297    0.94093   1.00
H1       0.15463    -0.00709   1.01130   1.00
C6       0.29749    -0.00073   0.94915   1.00
C6       0.17627    -0.04403   0.97622   1.00
H2       0.34779    0.00411    0.94831   1.00
H2       0.13329    -0.03637   0.97929   1.00
H2       0.26566    -0.05421   0.95311   1.00
H2       0.16874    -0.05786   0.96025   1.00
C6       0.27419    0.01234    0.92805   1.00
C6       0.17153    -0.10505   0.98876   1.00
H2       0.29884    0.06720    0.92527   1.00
H2       0.18869    -0.08842   1.00430   1.00
C6       0.28633    -0.02146   0.90899   1.00
C6       0.10050    -0.17197   0.98987   1.00
H2       0.21975    -0.00509   0.92904   1.00
H2       0.20838    -0.11772   0.98241   1.00
C6       0.36342    0.00877    0.90455   1.00
C6       0.04758    -0.16087   1.00168   1.00
C6       0.25233    -0.09981   0.91141   1.00
C6       0.07223    -0.20010   0.96846   1.00
C6       0.25403    -0.00687   0.89025   1.00
C6       0.10919    -0.22694   1.00140   1.00
H2       0.38914    0.06420    0.90309   1.00
H2       0.06650    -0.13996   1.01675   1.00
H2       0.38861    -0.00329   0.91659   1.00
H2       0.03583    -0.12582   0.99374   1.00
H2       0.37132    -0.01164   0.89046   1.00
H2       -0.00027   -0.20876   1.00358   1.00
H2       0.25689    -0.12337   0.89750   1.00
H2       0.02517    -0.24922   0.96941   1.00
H2       0.27642    -0.11294   0.92354   1.00
H2       0.06077    -0.16537   0.96018   1.00
H2       0.19827    -0.12221   0.91497   1.00
H2       0.10914    -0.20703   0.95967   1.00
H2       0.27681    0.04791    0.88773   1.00
H2       0.12841    -0.20988   1.01673   1.00
H2       0.26159    -0.02912   0.87650   1.00
H2       0.06074    -0.27462   1.00269   1.00
H2       0.19924    -0.02821   0.89229   1.00
H2       0.14499    -0.23806   0.99357   1.00
C4       0.81051    0.65017    0.98160   1.00
C4       0.83970    0.70123    0.99702   1.00
C3       0.77499    0.65625    0.96462   1.00
C3       0.84168    0.76496    0.99545   1.00
C3       0.81649    0.59036    0.98300   1.00
C3       0.86832    0.68900    1.01476   1.00
C2       0.75436    0.54854    0.94991   1.00
C2       0.89569    0.80318    1.02862   1.00
C3       0.74803    0.60723    0.94919   1.00
C3       0.86848    0.81431    1.01080   1.00
C3       0.78865    0.54181    0.96691   1.00
C3       0.89478    0.74043    1.03009   1.00
H1       0.76678    0.69620    0.96293   1.00
H1       0.82434    0.77819    0.98302   1.00
C5       0.84918    0.58002    1.00016   1.00
C5       0.87038    0.62700    1.01681   1.00
H1       0.72321    0.61474    0.93730   1.00
H1       0.86817    0.85913    1.00878   1.00
H1       0.79230    0.49886    0.96728   1.00
H1       0.91513    0.73342    1.04298   1.00
C6       0.86157    0.52021    1.00039   1.00
C6       0.89411    0.61162    1.03656   1.00
H2       0.88034    0.51590    0.98556   1.00
H2       0.87133    0.62428    1.04917   1.00
H2       0.90415    0.52980    1.01015   1.00
H2       0.87309    0.55715    1.03873   1.00
C6       0.79734    0.45161    1.00696   1.00
C6       0.97371    0.64826    1.03848   1.00
H2       0.75212    0.44636    0.99932   1.00
H2       0.99603    0.70117    1.03346   1.00
C6       0.79915    0.38415    1.00346   1.00
C6       1.00415    0.64856    1.05983   1.00
H2       0.78875    0.45543    1.02310   1.00
H2       0.99193    0.62437    1.02768   1.00
C6       0.80025    0.36908    0.98055   1.00
C6       0.98982    0.69119    1.07542   1.00
C6       0.86137    0.38639    1.01401   1.00
C6       0.97604    0.57533    1.06814   1.00
C6       0.73352    0.32396    1.01269   1.00
C6       1.08272    0.68183    1.05775   1.00
H2       0.75753    0.36826    0.97260   1.00
H2       1.00808    0.74291    1.06984   1.00
H2       0.84717    0.40734    0.97333   1.00
H2       0.93553    0.66825    1.07856   1.00
H2       0.79672    0.31969    0.97824   1.00
H2       1.01522    0.69503    1.08982   1.00
H2       0.85952    0.33743    1.01270   1.00
H2       1.00117    0.57582    1.08232   1.00
H2       0.90896    0.42490    1.00712   1.00
H2       0.92154    0.55120    1.07120   1.00
H2       0.86260    0.39834    1.03008   1.00
H2       0.98420    0.54381    1.05726   1.00
H2       0.68795    0.31965    1.00560   1.00
H2       1.10528    0.73403    1.05212   1.00
H2       0.73220    0.27552    1.01050   1.00
H2       1.10643    0.68363    1.07233   1.00
H2       0.73049    0.33095    1.02896   1.00
H2       1.09615    0.65319    1.04723   1.00
C4       0.84134    0.19040    0.98139   1.00
C4       0.86344    0.16101    0.99668   1.00
C3       0.88673    0.23710    0.96666   1.00
C3       0.93060    0.17060    0.99702   1.00
C3       0.77139    0.17308    0.98059   1.00
C3       0.81725    0.12025    1.01233   1.00
C2       0.79608    0.24728    0.94986   1.00
C2       0.90921    0.10439    1.02815   1.00
C3       0.86486    0.26448    0.95130   1.00
C3       0.95301    0.14349    1.01231   1.00
C3       0.75110    0.20178    0.96463   1.00
C3       0.84220    0.09388    1.02768   1.00
H1       0.93753    0.25351    0.96667   1.00
H1       0.96554    0.19707    0.98605   1.00
C5       0.72387    0.12857    0.99551   1.00
C5       0.74815    0.10643    1.01231   1.00
H1       0.90007    0.29768    0.94109   1.00
H1       1.00215    0.15248    1.01173   1.00
H1       0.70170    0.19032    0.96348   1.00
H1       0.81103    0.06505    1.03914   1.00
C6       0.64875    0.10497    0.99322   1.00
C6       0.70204    0.06941    1.03010   1.00
H2       0.63393    0.09104    0.97744   1.00
H2       0.73031    0.09006    1.04415   1.00
H2       0.61703    0.05677    1.00092   1.00
H2       0.66141    0.08142    1.03164   1.00
C6       0.62938    0.15856    1.00095   1.00
C6       0.66987    -0.00996   1.02896   1.00
H2       0.66718    0.20935    0.99560   1.00
H2       0.70892    -0.02232   1.02448   1.00
C6       0.55706    0.14662    0.99528   1.00
C6       0.63392    -0.05216   1.04846   1.00
H2       0.63407    0.16095    1.01746   1.00
H2       0.63283    -0.02853   1.01658   1.00
C6       0.54991    0.15339    0.97212   1.00
C6       0.68550    -0.03671   1.06594   1.00
C6       0.49971    0.07586    1.00251   1.00
C6       0.57682    -0.03865   1.05587   1.00
C6       0.54678    0.20193    1.00597   1.00
C6       0.60079    -0.12919   1.04332   1.00
H2       0.59037    0.20242    0.96648   1.00
H2       0.72711    -0.04470   1.06109   1.00
H2       0.55242    0.11330    0.96372   1.00
H2       0.70770    0.01573    1.07119   1.00
H2       0.50116    0.14969    0.96848   1.00
H2       0.66082    -0.06974   1.07897   1.00
H2       0.44950    0.07000    0.99979   1.00
H2       0.54889    -0.07186   1.06857   1.00
H2       0.50175    0.03496    0.99440   1.00
H2       0.59797    0.01386    1.06100   1.00
H2       0.50442    0.06921    1.01870   1.00
H2       0.54056    -0.04777   1.04370   1.00
H2       0.58566    0.25300    1.00122   1.00
H2       0.63914    -0.14163   1.03820   1.00
H2       0.49704    0.19600    1.00237   1.00
H2       0.57536    -0.16085   1.05653   1.00
H2       0.54988    0.19888    1.02243   1.00
H2       0.56279    -0.14359   1.03132   1.00
C4       0.50660    0.98364    0.81490   1.00
C4       0.53241    1.03678    0.82972   1.00
C3       0.43696    0.93091    0.81443   1.00
C3       0.48919    1.04502    0.84375   1.00
C3       0.55143    0.98231    0.79986   1.00
C3       0.60404    1.08403    0.83076   1.00
C2       0.45360    0.87804    0.78432   1.00
C2       0.58489    1.14218    0.86036   1.00
C3       0.41108    0.87987    0.79957   1.00
C3       0.51454    1.09585    0.85868   1.00
C3       0.52296    0.92967    0.78492   1.00
C3       0.62783    1.13483    0.84626   1.00
H1       0.40258    0.92722    0.82500   1.00
H1       0.43761    1.01481    0.84351   1.00
C5       0.62263    1.03237    0.80006   1.00
C5       0.64978    1.08008    0.81650   1.00
H1       0.36031    0.84344    0.80003   1.00
H1       0.48072    1.09892    0.86839   1.00
H1       0.55312    0.92730    0.77390   1.00
H1       0.67846    1.16905    0.84757   1.00
C6       0.66796    1.03470    0.78283   1.00
C6       0.72600    1.12567    0.81912   1.00
H2       0.64155    1.02863    0.76849   1.00
H2       0.73893    1.12643    0.83507   1.00
H2       0.71234    1.08519    0.78109   1.00
H2       0.75418    1.10379    0.81213   1.00
C6       0.69230    0.98127    0.78514   1.00
C6       0.75335    1.19948    0.81060   1.00
H2       0.64936    0.93219    0.78981   1.00
H2       0.71923    1.21818    0.81519   1.00
C6       0.72642    0.96848    0.76627   1.00
C6       0.82779    1.25508    0.81641   1.00
H2       0.72832    0.99758    0.79776   1.00
H2       0.74976    1.19596    0.79407   1.00
C6       0.67503    0.93478    0.74860   1.00
C6       0.83463    1.27121    0.83944   1.00
C6       0.78872    1.03537    0.75866   1.00
C6       0.88026    1.23344    0.81023   1.00
C6       0.75179    0.91883    0.77254   1.00
C6       0.84595    1.32189    0.80491   1.00
H2       0.62989    0.88795    0.75357   1.00
H2       0.79748    1.28559    0.84436   1.00
H2       0.65824    0.96875    0.74259   1.00
H2       0.82664    1.22747    0.84843   1.00
H2       0.69794    0.92176    0.73607   1.00
H2       0.88535    1.31326    0.84312   1.00
H2       0.81501    1.02522    0.74645   1.00
H2       0.93232    1.27448    0.81302   1.00
H2       0.77304    1.07039    0.75276   1.00
H2       0.87267    1.18924    0.81893   1.00
H2       0.82506    1.06087    0.77093   1.00
H2       0.87555    1.22041    0.79415   1.00
H2       0.70954    0.87036    0.77786   1.00
H2       0.81076    1.33982    0.80891   1.00
H2       0.77567    0.90793    0.75981   1.00
H2       0.89745    1.36251    0.80858   1.00
H2       0.78935    0.94038    0.78472   1.00
H2       0.84338    1.31414    0.78852   1.00
C4       0.01560    0.52395    0.81469   1.00
C4       -0.03740   0.49719    0.82956   1.00
C3       0.05964    0.49673    0.81160   1.00
C3       -0.05469   0.43706    0.84087   1.00
C3       0.02576    0.58014    0.80231   1.00
C3       -0.07516   0.53114    0.83345   1.00
C2       0.12063    0.57584    0.78394   1.00
C2       -0.14231   0.44490    0.86034   1.00
C3       0.11035    0.52156    0.79664   1.00
C3       -0.10528   0.41181    0.85587   1.00
C3       0.07773    0.60368    0.78717   1.00
C3       -0.12602   0.50398    0.84893   1.00
H1       0.05696    0.45827    0.82024   1.00
H1       -0.03163   0.40898    0.83850   1.00
C5       -0.01509   0.61153    0.80528   1.00
C5       -0.06202   0.59026    0.82195   1.00
H1       0.14026    0.49954    0.79512   1.00
H1       -0.11513   0.36836    0.86355   1.00
H1       0.08618    0.64322    0.77798   1.00
H1       -0.15362   0.52696    0.85222   1.00
C6       -0.00873   0.66605    0.79069   1.00
C6       -0.09719   0.62981    0.82768   1.00
H2       -0.00668   0.65011    0.77524   1.00
H2       -0.09605   0.63532    0.84412   1.00
H2       -0.05497   0.66936    0.79029   1.00
H2       -0.06814   0.68266    0.82280   1.00
C6       0.05340    0.73839    0.79547   1.00
C6       -0.17157   0.59748    0.81913   1.00
H2       0.09831    0.73395    0.79882   1.00
H2       -0.19822   0.54227    0.82140   1.00
C6       0.07406    0.79516    0.77899   1.00
C6       -0.21796   0.62472    0.82770   1.00
H2       0.04212    0.75630    0.80954   1.00
H2       -0.16798   0.60467    0.80270   1.00
C6       0.10140    0.77872    0.75948   1.00
C6       -0.23474   0.60669    0.85046   1.00
C6       0.01360    0.80584    0.77339   1.00
C6       -0.18470   0.70288    0.82493   1.00
C6       0.13220    0.86336    0.78765   1.00
C6       -0.28642   0.59022    0.81587   1.00
H2       0.14345    0.76979    0.76296   1.00
H2       -0.25729   0.55192    0.85297   1.00
H2       0.06177    0.73349    0.75188   1.00
H2       -0.18924   0.63274    0.85986   1.00
H2       0.12005    0.82071    0.74865   1.00
H2       -0.27084   0.62168    0.85592   1.00
H2       0.02976    0.84873    0.76300   1.00
H2       -0.21943   0.72063    0.82962   1.00
H2       -0.02696   0.76080    0.76594   1.00
H2       -0.13863   0.72991    0.83408   1.00
H2       -0.00753   0.81609    0.78692   1.00
H2       -0.17106   0.71710    0.80909   1.00
H2       0.17654    0.85880    0.79166   1.00
H2       -0.31241   0.53484    0.81750   1.00
H2       0.14874    0.90461    0.77661   1.00
H2       -0.32082   0.60731    0.82141   1.00
H2       0.11556    0.87847    0.80125   1.00
H2       -0.27807   0.60220    0.79972   1.00
C4       0.47608    0.49169    0.81469   1.00
C4       0.50286    0.46546    0.82956   1.00
C3       0.50304    0.56294    0.81168   1.00
C3       0.56277    0.50835    0.84095   1.00
C3       0.42015    0.44565    0.80224   1.00
C3       0.46914    0.39372    0.83337   1.00
C2       0.42418    0.54483    0.78395   1.00
C2       0.55516    0.41284    0.86034   1.00
C3       0.47820    0.58883    0.79672   1.00
C3       0.58803    0.48301    0.85595   1.00
C3       0.39659    0.47409    0.78710   1.00
C3       0.49630    0.37001    0.84885   1.00
H1       0.54130    0.59871    0.82038   1.00
H1       0.59070    0.55953    0.83864   1.00
C5       0.38901    0.37340    0.80513   1.00
C5       0.41026    0.34770    0.82179   1.00
H1       0.50003    0.64075    0.79526   1.00
H1       0.63132    0.51664    0.86369   1.00
H1       0.35722    0.44300    0.77786   1.00
H1       0.47348    0.31940    0.85209   1.00
C6       0.33478    0.32527    0.79046   1.00
C6       0.37092    0.27289    0.82743   1.00
H2       0.35087    0.34350    0.77503   1.00
H2       0.36521    0.26829    0.84386   1.00
H2       0.33173    0.27584    0.79001   1.00
H2       0.31812    0.24894    0.82249   1.00
C6       0.26225    0.31466    0.79518   1.00
C6       0.40366    0.23123    0.81888   1.00
H2       0.26640    0.36385    0.79857   1.00
H2       0.45883    0.25998    0.82120   1.00
C6       0.20572    0.27856    0.77862   1.00
C6       0.37661    0.15753    0.82737   1.00
H2       0.24426    0.28527    0.80921   1.00
H2       0.39668    0.22782    0.80244   1.00
C6       0.22224    0.32257    0.75916   1.00
C6       0.39440    0.15858    0.85014   1.00
C6       0.19546    0.20762    0.77296   1.00
C6       0.29852    0.11239    0.82450   1.00
C6       0.13729    0.26806    0.78723   1.00
C6       0.41154    0.12400    0.81553   1.00
H2       0.23087    0.37342    0.76270   1.00
H2       0.44911    0.19096    0.85272   1.00
H2       0.26765    0.32849    0.75161   1.00
H2       0.36806    0.17771    0.85953   1.00
H2       0.18039    0.29922    0.74829   1.00
H2       0.37956    0.10747    0.85555   1.00
H2       0.15273    0.18088    0.76252   1.00
H2       0.28094    0.05989    0.82913   1.00
H2       0.24068    0.21242    0.76555   1.00
H2       0.27121    0.13113    0.83365   1.00
H2       0.18517    0.17609    0.78647   1.00
H2       0.28447    0.11194    0.80865   1.00
H2       0.14156    0.31681    0.79128   1.00
H2       0.46688    0.15358    0.81723   1.00
H2       0.09621    0.24336    0.77614   1.00
H2       0.39459    0.07247    0.82102   1.00
H2       0.12214    0.23614    0.80079   1.00
H2       0.39975    0.12053    0.79937   1.00
C4       0.30664    0.17114    0.34868   1.00
C4       0.35709    0.19290    0.33309   1.00
C3       0.26884    0.20477    0.35258   1.00
C3       0.36821    0.24508    0.31896   1.00
C3       0.29287    0.11371    0.36102   1.00
C3       0.39841    0.16178    0.33132   1.00
C2       0.20226    0.12515    0.37955   1.00
C2       0.46136    0.23927    0.30217   1.00
C3       0.21799    0.18237    0.36746   1.00
C3       0.41893    0.26788    0.30402   1.00
C3       0.24041    0.09230    0.37595   1.00
C3       0.44976    0.18674    0.31597   1.00
H1       0.27731    0.24721    0.34488   1.00
H1       0.33940    0.26801    0.31886   1.00
C5       0.33125    0.07953    0.35839   1.00
C5       0.38768    0.10704    0.34456   1.00
H1       0.19236    0.20868    0.36947   1.00
H1       0.42455    0.30589    0.29434   1.00
H1       0.22882    0.05140    0.38492   1.00
H1       0.48046    0.16622    0.31432   1.00
C6       0.31126    0.01458    0.37004   1.00
C6       0.43641    0.07957    0.34394   1.00
H2       0.25598    -0.01778   0.36966   1.00
H2       0.48851    0.12217    0.34309   1.00
H2       0.32764    -0.01718   0.36231   1.00
H2       0.43719    0.05616    0.35825   1.00
C6       0.33932    0.02777    0.39230   1.00
C6       0.42058    0.02708    0.32636   1.00
H2       0.33179    0.06732    0.39927   1.00
H2       0.40989    0.04612    0.31241   1.00
C6       0.30975    -0.03462   0.40711   1.00
C6       0.47582    0.00692    0.32141   1.00
H2       0.39456    0.04952    0.39150   1.00
H2       0.37302    -0.01934   0.33011   1.00
C6       0.23318    -0.06196   0.41168   1.00
C6       0.54186    0.06814    0.31280   1.00
C6       0.31890    -0.09335   0.39862   1.00
C6       0.49382    -0.02162   0.34031   1.00
C6       0.34896    -0.01112   0.42753   1.00
C6       0.44691    -0.04968   0.30494   1.00
H2       0.22486    -0.02142   0.41739   1.00
H2       0.53072    0.09017    0.29962   1.00
H2       0.20195    -0.08326   0.39816   1.00
H2       0.56723    0.10827    0.32407   1.00
H2       0.21427    -0.10229   0.42307   1.00
H2       0.57818    0.05248    0.30808   1.00
H2       0.30260    -0.13452   0.40967   1.00
H2       0.52864    -0.04002   0.33637   1.00
H2       0.28851    -0.11494   0.38496   1.00
H2       0.51870    0.01766    0.35186   1.00
H2       0.37220    -0.07511   0.39488   1.00
H2       0.44799    -0.06390   0.34692   1.00
H2       0.34355    0.02995    0.43429   1.00
H2       0.43401    -0.03186   0.29115   1.00
H2       0.32979    -0.05292   0.43845   1.00
H2       0.48391    -0.06519   0.30085   1.00
H2       0.40325    0.00750    0.42537   1.00
H2       0.40089    -0.09490   0.31027   1.00
C4       0.86996    0.69210    0.34899   1.00
C4       0.84333    0.64270    0.33307   1.00
C3       0.91527    0.69237    0.36404   1.00
C3       0.86561    0.59470    0.32983   1.00
C3       0.85102    0.74352    0.35017   1.00
C3       0.79250    0.64054    0.31973   1.00
C2       0.92648    0.79398    0.38061   1.00
C2       0.78711    0.54060    0.30151   1.00
C3       0.94300    0.74189    0.37931   1.00
C3       0.83820    0.54495    0.31461   1.00
C3       0.88070    0.79325    0.36589   1.00
C3       0.76563    0.58883    0.30448   1.00
H1       0.92929    0.65618    0.36458   1.00
H1       0.90309    0.59452    0.33828   1.00
C5       0.80338    0.74416    0.33596   1.00
C5       0.77010    0.68935    0.32171   1.00
H1       0.97561    0.73942    0.38966   1.00
H1       0.85626    0.51164    0.31310   1.00
H1       0.86884    0.83088    0.36714   1.00
H1       0.72909    0.58537    0.29479   1.00
C6       0.78942    0.80295    0.33605   1.00
C6       0.71125    0.68198    0.30891   1.00
H2       0.83755    0.85063    0.33762   1.00
H2       0.67120    0.62860    0.30875   1.00
H2       0.77186    0.80958    0.32133   1.00
H2       0.68535    0.70604    0.31604   1.00
C6       0.73666    0.79574    0.35265   1.00
C6       0.73306    0.71106    0.28691   1.00
H2       0.74837    0.77926    0.36693   1.00
H2       0.76750    0.69493    0.28068   1.00
C6       0.72963    0.85982    0.35719   1.00
C6       0.67505    0.69289    0.27102   1.00
H2       0.68671    0.75397    0.34811   1.00
H2       0.76358    0.76654    0.28805   1.00
C6       0.79549    0.91828    0.36683   1.00
C6       0.63588    0.61558    0.26603   1.00
C6       0.71209    0.88654    0.33779   1.00
C6       0.62384    0.71472    0.27842   1.00
C6       0.67073    0.83930    0.37263   1.00
C6       0.70788    0.73182    0.25103   1.00
H2       0.80989    0.90074    0.38040   1.00
H2       0.67078    0.59832    0.26107   1.00
H2       0.83820    0.93811    0.35629   1.00
H2       0.60801    0.58527    0.27916   1.00
H2       0.78848    0.96084    0.37123   1.00
H2       0.59879    0.60417    0.25394   1.00
H2       0.70252    0.92808    0.34135   1.00
H2       0.58649    0.70631    0.26666   1.00
H2       0.75401    0.90603    0.32694   1.00
H2       0.59587    0.68539    0.29170   1.00
H2       0.66669    0.84596    0.33046   1.00
H2       0.65030    0.76867    0.28244   1.00
H2       0.68094    0.82068    0.38672   1.00
H2       0.74406    0.71768    0.24503   1.00
H2       0.66411    0.88259    0.37639   1.00
H2       0.66935    0.72041    0.23938   1.00
H2       0.62246    0.79906    0.36652   1.00
H2       0.73519    0.78687    0.25348   1.00
C4       0.82260    0.13028    0.34893   1.00
C4       0.79995    0.15705    0.33302   1.00
C3       0.77691    0.08217    0.36332   1.00
C3       0.72954    0.13237    0.32910   1.00
C3       0.89349    0.15194    0.35077   1.00
C3       0.84886    0.21050    0.32039   1.00
C2       0.86790    0.07356    0.38050   1.00
C2       0.75412    0.21344    0.30150   1.00
C3       0.79869    0.05434    0.37858   1.00
C3       0.70720    0.15985    0.31389   1.00
C3       0.91354    0.12209    0.36645   1.00
C3       0.82401    0.23734    0.30515   1.00
H1       0.72618    0.06604    0.36339   1.00
H1       0.69183    0.09304    0.33700   1.00
C5       0.94229    0.20238    0.33726   1.00
C5       0.92037    0.23549    0.32306   1.00
H1       0.76315    0.01966    0.38843   1.00
H1       0.65572    0.13998    0.31188   1.00
H1       0.96342    0.13585    0.36815   1.00
H1       0.85723    0.27569    0.29595   1.00
C6       1.01599    0.21943    0.33799   1.00
C6       0.97171    0.29684    0.31106   1.00
H2       1.01768    0.17231    0.33925   1.00
H2       0.95616    0.33526    0.31105   1.00
H2       1.04166    0.23946    0.32359   1.00
H2       1.02069    0.32361    0.31873   1.00
C6       1.05801    0.27105    0.35527   1.00
C6       0.98287    0.27856    0.28899   1.00
H2       1.02803    0.25658    0.36925   1.00
H2       0.93357    0.24332    0.28215   1.00
C6       1.12984    0.28074    0.36040   1.00
C6       1.02272    0.33890    0.27379   1.00
H2       1.06451    0.32067    0.35112   1.00
H2       1.00974    0.24986    0.29013   1.00
C6       1.12431    0.21504    0.36956   1.00
C6       0.98242    0.37586    0.26877   1.00
C6       1.17660    0.30226    0.34147   1.00
C6       1.09403    0.39140    0.28208   1.00
C6       1.16438    0.33813    0.37650   1.00
C6       1.03297    0.30958    0.25366   1.00
H2       1.09070    0.19786    0.38277   1.00
H2       0.93137    0.33996    0.26319   1.00
H2       1.10426    0.17358    0.35857   1.00
H2       0.97699    0.40133    0.28205   1.00
H2       1.17413    0.22371    0.37438   1.00
H2       1.00835    0.41468    0.25712   1.00
H2       1.22799    0.31360    0.34549   1.00
H2       1.12325    0.43059    0.27080   1.00
H2       1.15701    0.26163    0.33019   1.00
H2       1.08969    0.41702    0.29552   1.00
H2       1.18022    0.34762    0.33448   1.00
H2       1.12295    0.36644    0.28614   1.00
H2       1.13369    0.32512    0.39030   1.00
H2       0.98399    0.27264    0.24704   1.00
H2       1.21465    0.34651    0.38069   1.00
H2       1.06025    0.34982    0.24248   1.00
H2       1.17099    0.38629    0.37077   1.00
H2       1.06236    0.28399    0.25614   1.00
C4       0.81952    0.68177    0.85207   1.00
C4       0.79589    0.62901    0.83715   1.00
C3       0.78320    0.71624    0.85693   1.00
C3       0.73099    0.60213    0.82762   1.00
C3       0.88181    0.70157    0.86265   1.00
C3       0.83805    0.60138    0.83138   1.00
C2       0.86551    0.78617    0.88293   1.00
C2       0.74944    0.52465    0.80626   1.00
C3       0.80520    0.76661    0.87196   1.00
C3       0.70850    0.55179    0.81257   1.00
C3       0.90225    0.75283    0.87792   1.00
C3       0.81342    0.55043    0.81591   1.00
H1       0.73974    0.70651    0.84960   1.00
H1       0.69734    0.61764    0.83140   1.00
C5       0.92206    0.67073    0.85781   1.00
C5       0.90268    0.62436    0.84104   1.00
H1       0.77656    0.78934    0.87481   1.00
H1       0.66128    0.53475    0.80623   1.00
H1       0.94599    0.76794    0.88587   1.00
H1       0.84213    0.52989    0.81130   1.00
C6       0.98393    0.68688    0.87058   1.00
C6       0.94983    0.60004    0.83329   1.00
H2       0.97114    0.68620    0.88655   1.00
H2       0.95053    0.60163    0.81677   1.00
H2       0.99602    0.64613    0.86997   1.00
H2       1.00281    0.63592    0.83691   1.00
C6       1.04888    0.75570    0.86456   1.00
C6       0.93124    0.52774    0.84145   1.00
H2       1.03492    0.79498    0.86226   1.00
H2       0.87609    0.49365    0.84057   1.00
C6       1.11113    0.78512    0.87941   1.00
C6       0.96635    0.49103    0.83108   1.00
H2       1.06589    0.74854    0.84973   1.00
H2       0.94332    0.53273    0.85763   1.00
C6       1.09443    0.80707    0.89992   1.00
C6       0.94310    0.47207    0.80873   1.00
C6       1.13532    0.73314    0.88343   1.00
C6       1.04511    0.53530    0.83181   1.00
C6       1.17118    0.84950    0.86959   1.00
C6       0.94534    0.42373    0.84270   1.00
H2       1.07612    0.84296    0.89759   1.00
H2       0.88760    0.44171    0.80767   1.00
H2       1.05537    0.76347    0.90826   1.00
H2       0.95994    0.51734    0.79938   1.00
H2       1.13945    0.83180    0.90962   1.00
H2       0.96411    0.44239    0.80208   1.00
H2       1.18162    0.75580    0.89262   1.00
H2       1.06907    0.50737    0.82586   1.00
H2       1.09659    0.68874    0.89160   1.00
H2       1.06296    0.58126    0.82268   1.00
H2       1.14606    0.71576    0.86920   1.00
H2       1.06273    0.55055    0.84734   1.00
H2       1.15699    0.88822    0.86663   1.00
H2       0.89008    0.39020    0.84247   1.00
H2       1.21584    0.87221    0.87948   1.00
H2       0.96829    0.39595    0.83593   1.00
H2       1.18629    0.83703    0.85522   1.00
H2       0.96161    0.43384    0.85852   1.00
C4       0.30843    0.12961    0.84914   1.00
C4       0.36006    0.15443    0.83385   1.00
C3       0.24775    0.13338    0.84716   1.00
C3       0.35147    0.17812    0.81466   1.00
C3       0.31702    0.09980    0.86722   1.00
C3       0.42297    0.15591    0.83762   1.00
C2       0.20247    0.07640    0.87961   1.00
C2       0.46571    0.20777    0.80329   1.00
C3       0.19616    0.10732    0.86186   1.00
C3       0.40272    0.20430    0.79986   1.00
C3       0.26310    0.07353    0.88177   1.00
C3       0.47402    0.18332    0.82219   1.00
H1       0.23905    0.15582    0.83506   1.00
H1       0.30738    0.17659    0.81064   1.00
C5       0.37828    0.09716    0.87046   1.00
C5       0.43350    0.13010    0.85632   1.00
H1       0.15350    0.11138    0.85949   1.00
H1       0.39345    0.22083    0.78636   1.00
H1       0.26712    0.05155    0.89475   1.00
H1       0.51959    0.18565    0.82436   1.00
C6       0.38358    0.05906    0.88860   1.00
C6       0.50282    0.13864    0.86098   1.00
H2       0.33598    0.01086    0.89020   1.00
H2       0.54214    0.19011    0.85685   1.00
H2       0.41988    0.04175    0.88598   1.00
H2       0.51106    0.13830    0.87721   1.00
C6       0.40316    0.10178    0.90869   1.00
C6       0.51497    0.08334    0.85059   1.00
H2       0.37344    0.12759    0.90995   1.00
H2       0.49738    0.07628    0.83486   1.00
C6       0.39535    0.06309    0.92908   1.00
C6       0.58943    0.09562    0.85056   1.00
H2       0.45616    0.14261    0.90731   1.00
H2       0.48189    0.03462    0.85805   1.00
C6       0.31956    0.01131    0.93384   1.00
C6       0.63787    0.15824    0.83744   1.00
C6       0.43663    0.02540    0.92884   1.00
C6       0.61861    0.10539    0.87233   1.00
C6       0.42323    0.11602    0.94659   1.00
C6       0.58827    0.03211    0.84121   1.00
H2       0.28881    0.03615    0.93380   1.00
H2       0.61810    0.15342    0.82205   1.00
H2       0.29783    -0.02985   0.92277   1.00
H2       0.64439    0.20543    0.84387   1.00
H2       0.31423    -0.01192   0.94873   1.00
H2       0.68839    0.16356    0.83636   1.00
H2       0.43481    0.00271    0.94360   1.00
H2       0.66853    0.10902    0.87227   1.00
H2       0.41606    -0.01564   0.91769   1.00
H2       0.62490    0.15209    0.87912   1.00
H2       0.48994    0.06046    0.92509   1.00
H2       0.58472    0.06264    0.88200   1.00
H2       0.39527    0.14364    0.94757   1.00
H2       0.56869    0.02332    0.82571   1.00
H2       0.41846    0.09134    0.96121   1.00
H2       0.63932    0.03844    0.84073   1.00
H2       0.47705    0.15326    0.94431   1.00
H2       0.55594    -0.01365   0.85006   1.00
C4       0.86989    0.17772    0.84898   1.00
C4       0.84524    0.20441    0.83360   1.00
C3       0.85819    0.10979    0.84837   1.00
C3       0.81351    0.16766    0.81553   1.00
C3       0.90771    0.21981    0.86572   1.00
C3       0.85225    0.27034    0.83612   1.00
C2       0.92258    0.12475    0.87953   1.00
C2       0.79236    0.25691    0.80296   1.00
C3       0.88396    0.08411    0.86311   1.00
C3       0.78754    0.19285    0.80070   1.00
C3       0.93338    0.19184    0.88036   1.00
C3       0.82477    0.29398    0.82072   1.00
H1       0.82992    0.07620    0.83730   1.00
H1       0.80869    0.12151    0.81237   1.00
C5       0.91868    0.28768    0.86761   1.00
C5       0.88628    0.31095    0.85359   1.00
H1       0.87396    0.03476    0.86176   1.00
H1       0.76498    0.16373    0.78805   1.00
H1       0.96089    0.22035    0.89241   1.00
H1       0.82835    0.34040    0.82204   1.00
C6       0.96483    0.33404    0.88419   1.00
C6       0.88690    0.37733    0.85713   1.00
H2       1.01030    0.32922    0.88503   1.00
H2       0.83625    0.36965    0.85405   1.00
H2       0.98647    0.38752    0.88024   1.00
H2       0.89319    0.39115    0.87309   1.00
C6       0.92844    0.32094    0.90529   1.00
C6       0.94319    0.43837    0.84458   1.00
H2       0.89825    0.26608    0.90807   1.00
H2       0.94373    0.42176    0.82905   1.00
C6       0.97436    0.35473    0.92436   1.00
C6       0.93905    0.50528    0.84348   1.00
H2       0.89141    0.33836    0.90430   1.00
H2       0.99270    0.45105    0.85094   1.00
C6       1.02124    0.32452    0.92880   1.00
C6       0.87503    0.49417    0.83167   1.00
C6       1.01869    0.43309    0.92194   1.00
C6       0.93889    0.53339    0.86489   1.00
C6       0.92745    0.34012    0.94309   1.00
C6       1.00272    0.56027    0.83195   1.00
H2       0.99154    0.26909    0.93025   1.00
H2       0.87306    0.47327    0.81659   1.00
H2       1.05850    0.33660    0.91676   1.00
H2       0.82824    0.45911    0.83961   1.00
H2       1.04954    0.34493    0.94288   1.00
H2       0.87506    0.54205    0.82977   1.00
H2       1.04681    0.45664    0.93585   1.00
H2       0.94093    0.58250    0.86395   1.00
H2       1.05593    0.44624    0.90981   1.00
H2       0.89269    0.49864    0.87317   1.00
H2       0.98703    0.45548    0.91838   1.00
H2       0.98272    0.54032    0.87368   1.00
H2       0.89547    0.28534    0.94561   1.00
H2       1.00489    0.54322    0.81662   1.00
H2       0.95725    0.36236    0.95685   1.00
H2       1.00193    0.60794    0.83067   1.00
H2       0.89400    0.36145    0.94105   1.00
H2       1.04964    0.57140    0.83979   1.00
C4       0.01557    0.49155    0.31468   1.00
C4       -0.03602   0.46938    0.32993   1.00
C3       0.01897    0.44563    0.30058   1.00
C3       -0.09179   0.40125    0.33082   1.00
C3       0.06616    0.56213    0.31325   1.00
C3       -0.03257   0.51649    0.34498   1.00
C2       0.11786    0.53678    0.28319   1.00
C2       -0.13855   0.42362    0.36136   1.00
C3       0.06829    0.46748    0.28524   1.00
C3       -0.14136   0.37886    0.34610   1.00
C3       0.11529    0.58235    0.29734   1.00
C3       -0.08387   0.49155    0.36035   1.00
H1       -0.01385   0.39449    0.30106   1.00
H1       -0.09887   0.36550    0.32029   1.00
C5       0.06709    0.61034    0.32754   1.00
C5       0.02077    0.58645    0.34437   1.00
H1       0.06783    0.43185    0.27550   1.00
H1       -0.18016   0.32900    0.34594   1.00
H1       0.15180    0.63215    0.29575   1.00
H1       -0.08288   0.52338    0.37138   1.00
C6       0.11630    0.68573    0.32456   1.00
C6       0.02797    0.63389    0.36158   1.00
H2       0.11651    0.69842    0.30860   1.00
H2       0.02151    0.60759    0.37596   1.00
H2       0.09802    0.71681    0.33173   1.00
H2       0.07993    0.67614    0.36290   1.00
C6       0.19000    0.70889    0.33247   1.00
C6       -0.02174   0.66297    0.35972   1.00
H2       0.20500    0.67200    0.32772   1.00
H2       -0.07251   0.62199    0.35545   1.00
C6       0.24839    0.78157    0.32621   1.00
C6       -0.02975   0.70000    0.37868   1.00
H2       0.18788    0.70610    0.34902   1.00
H2       -0.00457   0.69854    0.34696   1.00
C6       0.26226    0.78652    0.30305   1.00
C6       -0.06429   0.65003    0.39663   1.00
C6       0.23208    0.83774    0.33257   1.00
C6       0.03983    0.75982    0.38575   1.00
C6       0.31497    0.79585    0.33716   1.00
C6       -0.07613   0.72971    0.37283   1.00
H2       0.27286    0.74679    0.29801   1.00
H2       -0.11308   0.60660    0.39203   1.00
H2       0.21883    0.78114    0.29443   1.00
H2       -0.03236   0.63037    0.40235   1.00
H2       0.30607    0.83573    0.29904   1.00
H2       -0.07394   0.67522    0.40925   1.00
H2       0.27510    0.88845    0.32945   1.00
H2       0.03316    0.78828    0.39803   1.00
H2       0.18827    0.83283    0.32424   1.00
H2       0.07284    0.74121    0.39136   1.00
H2       0.22070    0.83448    0.34874   1.00
H2       0.06588    0.79504    0.37327   1.00
H2       0.32921    0.75794    0.33301   1.00
H2       -0.12630   0.68937    0.36791   1.00
H2       0.35747    0.84598    0.33315   1.00
H2       -0.08364   0.75576    0.38565   1.00
H2       0.30885    0.79444    0.35360   1.00
H2       -0.05377   0.76649    0.36047   1.00
C4       0.47631    0.98425    0.31473   1.00
C4       0.50569    1.03571    0.33002   1.00
C3       0.43002    0.98325    0.29991   1.00
C3       0.49654    1.09356    0.33028   1.00
C3       0.49321    0.93131    0.31402   1.00
C3       0.54600    1.03000    0.34576   1.00
C2       0.41946    0.88213    0.28319   1.00
C2       0.56229    1.13809    0.36149   1.00
C3       0.40266    0.93401    0.28454   1.00
C3       0.52364    1.14307    0.34557   1.00
C3       0.46454    0.88233    0.29806   1.00
C3       0.57238    1.08132    0.36111   1.00
H1       0.41391    1.01787    0.29984   1.00
H1       0.47041    1.10224    0.31925   1.00
C5       0.53728    0.92798    0.32903   1.00
C5       0.55938    0.97442    0.34583   1.00
H1       0.36976    0.93625    0.27426   1.00
H1       0.51498    1.18343    0.34493   1.00
H1       0.47572    0.84419    0.29697   1.00
H1       0.60089    1.07878    0.37263   1.00
C6       0.56048    0.87612    0.32685   1.00
C6       0.59590    0.96506    0.36370   1.00
H2       0.57463    0.87512    0.31110   1.00
H2       0.57514    0.97285    0.37771   1.00
H2       0.60849    0.89232    0.33463   1.00
H2       0.58354    0.91231    0.36528   1.00
C6       0.50643    0.80328    0.33454   1.00
C6       0.67534    1.01186    0.36268   1.00
H2       0.45582    0.79060    0.32911   1.00
H2       0.68810    1.06336    0.35817   1.00
C6       0.51801    0.74261    0.32897   1.00
C6       0.71710    1.01785    0.38226   1.00
H2       0.50378    0.80562    0.35105   1.00
H2       0.69393    0.99318    0.35036   1.00
C6       0.51156    0.72868    0.30581   1.00
C6       0.70166    1.05423    0.39967   1.00
C6       0.58848    0.75557    0.33633   1.00
C6       0.70301    0.94709    0.38971   1.00
C6       0.46225    0.67719    0.33962   1.00
C6       0.79425    1.06135    0.37723   1.00
H2       0.46275    0.72042    0.30008   1.00
H2       0.71005    1.10393    0.39479   1.00
H2       0.55195    0.77113    0.29744   1.00
H2       0.64910    1.02425    0.40484   1.00
H2       0.51499    0.68343    0.30223   1.00
H2       0.73441    1.06238    0.41275   1.00
H2       0.59406    0.71102    0.33367   1.00
H2       0.73593    0.95217    0.40248   1.00
H2       0.62968    0.79837    0.32826   1.00
H2       0.65039    0.91600    0.39477   1.00
H2       0.59491    0.76693    0.35252   1.00
H2       0.71213    0.91979    0.37760   1.00
H2       0.41135    0.66531    0.33478   1.00
H2       0.80710    1.11223    0.37208   1.00
H2       0.46791    0.63318    0.33607   1.00
H2       0.82562    1.06739    0.39051   1.00
H2       0.46504    0.68335    0.35607   1.00
H2       0.80864    1.03757    0.36529   1.00
C4       0.50797    0.52370    0.31472   1.00
C4       0.53005    0.49432    0.33002   1.00
C3       0.55329    0.57013    0.29993   1.00
C3       0.59710    0.50361    0.33030   1.00
C3       0.43809    0.50667    0.31398   1.00
C3       0.48398    0.45386    0.34573   1.00
C2       0.46270    0.58056    0.28319   1.00
C2       0.57583    0.43771    0.36149   1.00
C3       0.53141    0.59749    0.28457   1.00
C3       0.61952    0.47651    0.34559   1.00
C3       0.41779    0.53535    0.29803   1.00
C3       0.50893    0.42749    0.36108   1.00
H1       0.60405    0.58633    0.29989   1.00
H1       0.63196    0.52984    0.31929   1.00
C5       0.39065    0.46246    0.32897   1.00
C5       0.41497    0.44034    0.34577   1.00
H1       0.56658    0.63049    0.27431   1.00
H1       0.66858    0.48527    0.34498   1.00
H1       0.36845    0.52408    0.29692   1.00
H1       0.47784    0.39888    0.37258   1.00
C6       0.31558    0.43913    0.32675   1.00
C6       0.36902    0.40366    0.36362   1.00
H2       0.30053    0.42505    0.31100   1.00
H2       0.39748    0.42439    0.37763   1.00
H2       0.28379    0.39106    0.33451   1.00
H2       0.32856    0.41592    0.36518   1.00
C6       0.29660    0.49303    0.33446   1.00
C6       0.33653    0.32424    0.36255   1.00
H2       0.33448    0.54370    0.32905   1.00
H2       0.37538    0.31162    0.35805   1.00
C6       0.22433    0.48134    0.32886   1.00
C6       0.30070    0.28234    0.38211   1.00
H2       0.30149    0.49560    0.35097   1.00
H2       0.29934    0.30567    0.35021   1.00
C6       0.21695    0.48789    0.30569   1.00
C6       0.35244    0.29779    0.39955   1.00
C6       0.16686    0.41077    0.33617   1.00
C6       0.24389    0.29625    0.38955   1.00
C6       0.21447    0.53696    0.33952   1.00
C6       0.26722    0.20523    0.37704   1.00
H2       0.25748    0.53677    0.29999   1.00
H2       0.39385    0.28953    0.39467   1.00
H2       0.21915    0.44759    0.29732   1.00
H2       0.37491    0.35031    0.40474   1.00
H2       0.16826    0.48438    0.30209   1.00
H2       0.32783    0.26495    0.41261   1.00
H2       0.11671    0.40510    0.33349   1.00
H2       0.21603    0.26324    0.40230   1.00
H2       0.16861    0.36967    0.32809   1.00
H2       0.26531    0.34884    0.39463   1.00
H2       0.17173    0.40428    0.35237   1.00
H2       0.20753    0.28713    0.37742   1.00
H2       0.25344    0.58791    0.33471   1.00
H2       0.30535    0.19251    0.37190   1.00
H2       0.16478    0.53120    0.33595   1.00
H2       0.24186    0.17378    0.39030   1.00
H2       0.21775    0.53408    0.35597   1.00
H2       0.22910    0.19084    0.36509   1.00
C4       0.17252    0.31657    0.14835   1.00
C4       0.19812    0.36975    0.16316   1.00
C3       0.10454    0.26043    0.14893   1.00
C3       0.15566    0.37431    0.17830   1.00
C3       0.21587    0.31873    0.13225   1.00
C3       0.26873    0.42081    0.16305   1.00
C2       0.11965    0.21075    0.11784   1.00
C2       0.25048    0.47534    0.19374   1.00
C3       0.07869    0.20926    0.13411   1.00
C3       0.18098    0.42524    0.19320   1.00
C3       0.18746    0.26581    0.11739   1.00
C3       0.29257    0.47160    0.17855   1.00
H1       0.07146    0.25425    0.16026   1.00
H1       0.10461    0.34120    0.17895   1.00
C5       0.28563    0.37244    0.13134   1.00
C5       0.31340    0.42055    0.14767   1.00
H1       0.02913    0.17027    0.13534   1.00
H1       0.14776    0.42556    0.20375   1.00
H1       0.21655    0.26584    0.10564   1.00
H1       0.34253    0.50849    0.17906   1.00
C6       0.32875    0.37811    0.11309   1.00
C6       0.38924    0.47044    0.14900   1.00
H2       0.29884    0.36992    0.09935   1.00
H2       0.40596    0.47246    0.16461   1.00
H2       0.37028    0.43001    0.11090   1.00
H2       0.41871    0.45169    0.14108   1.00
C6       0.35876    0.32902    0.11415   1.00
C6       0.40981    0.54314    0.14074   1.00
H2       0.31922    0.27863    0.11925   1.00
H2       0.37394    0.55832    0.14637   1.00
C6       0.39113    0.31928    0.09435   1.00
C6       0.48368    0.60250    0.14541   1.00
H2       0.39744    0.34776    0.12607   1.00
H2       0.40287    0.53923    0.12429   1.00
C6       0.33687    0.28257    0.07755   1.00
C6       0.49434    0.61885    0.16842   1.00
C6       0.44867    0.38824    0.08607   1.00
C6       0.53846    0.58599    0.13772   1.00
C6       0.42275    0.27395    0.09939   1.00
C6       0.49466    0.66773    0.13432   1.00
H2       0.29494    0.23416    0.08303   1.00
H2       0.45574    0.62965    0.17440   1.00
H2       0.31546    0.31360    0.07238   1.00
H2       0.49150    0.57649    0.17705   1.00
H2       0.35899    0.27179    0.06435   1.00
H2       0.54427    0.66328    0.17137   1.00
H2       0.47413    0.38049    0.07313   1.00
H2       0.58966    0.62955    0.13974   1.00
H2       0.42834    0.42037    0.08099   1.00
H2       0.53601    0.54323    0.14604   1.00
H2       0.48685    0.41579    0.09774   1.00
H2       0.53121    0.57290    0.12164   1.00
H2       0.38401    0.22422    0.10512   1.00
H2       0.45761    0.68206    0.13937   1.00
H2       0.44566    0.26528    0.08597   1.00
H2       0.54551    0.71085    0.13723   1.00
H2       0.46250    0.29782    0.11090   1.00
H2       0.48915    0.65985    0.11794   1.00
C4       0.69144    0.87047    0.15082   1.00
C4       0.64209    0.84423    0.16676   1.00
C3       0.68633    0.90767    0.13414   1.00
C3       0.58829    0.85940    0.16825   1.00
C3       0.74836    0.85948    0.15132   1.00
C3       0.64596    0.80117    0.18193   1.00
C2       0.79297    0.92644    0.11910   1.00
C2       0.54029    0.78850    0.19841   1.00
C3       0.73565    0.93514    0.11880   1.00
C3       0.53869    0.83218    0.18352   1.00
C3       0.79766    0.88863    0.13546   1.00
C3       0.59422    0.77419    0.19716   1.00
H1       0.64623    0.91562    0.13240   1.00
H1       0.58352    0.89135    0.15841   1.00
C5       0.75476    0.81999    0.16728   1.00
C5       0.70060    0.78639    0.18172   1.00
H1       0.72915    0.96170    0.10722   1.00
H1       0.50104    0.84487    0.18371   1.00
H1       0.83907    0.88233    0.13537   1.00
H1       0.59498    0.74301    0.20813   1.00
C6       0.81880    0.81492    0.16881   1.00
C6       0.70001    0.73506    0.19656   1.00
H2       0.86307    0.86518    0.16627   1.00
H2       0.64870    0.69105    0.19728   1.00
H2       0.82761    0.80414    0.18423   1.00
H2       0.72907    0.71217    0.19091   1.00
C6       0.81854    0.76017    0.15420   1.00
C6       0.72725    0.76583    0.21812   1.00
H2       0.80005    0.76438    0.13926   1.00
H2       0.70551    0.79738    0.22269   1.00
C6       0.88743    0.76082    0.15114   1.00
C6       0.71503    0.71479    0.23580   1.00
H2       0.78066    0.70992    0.15987   1.00
H2       0.78205    0.80102    0.21683   1.00
C6       0.94108    0.82639    0.14009   1.00
C6       0.63812    0.66990    0.24085   1.00
C6       0.91735    0.75417    0.17158   1.00
C6       0.74501    0.66818    0.23081   1.00
C6       0.87384    0.69899    0.13768   1.00
C6       0.75133    0.75642    0.25512   1.00
H2       0.92108    0.83315    0.12574   1.00
H2       0.61516    0.70133    0.24412   1.00
H2       0.95619    0.87167    0.14929   1.00
H2       0.61007    0.63611    0.22832   1.00
H2       0.98718    0.82423    0.13677   1.00
H2       0.63045    0.63789    0.25408   1.00
H2       0.96269    0.74977    0.16916   1.00
H2       0.74057    0.63623    0.24378   1.00
H2       0.93220    0.79878    0.18110   1.00
H2       0.71802    0.63437    0.21816   1.00
H2       0.88005    0.70915    0.17986   1.00
H2       0.79882    0.69853    0.22679   1.00
H2       0.85328    0.70159    0.12294   1.00
H2       0.73147    0.78976    0.25944   1.00
H2       0.92065    0.69749    0.13499   1.00
H2       0.74387    0.72294    0.26796   1.00
H2       0.83731    0.65099    0.14487   1.00
H2       0.80613    0.78819    0.25264   1.00
C4       0.13029    0.82262    0.15107   1.00
C4       0.15707    0.79997    0.16698   1.00
C3       0.08208    0.77691    0.13670   1.00
C3       0.13230    0.72956    0.17093   1.00
C3       0.15204    0.89353    0.14921   1.00
C3       0.21061    0.84889    0.17958   1.00
C2       0.07356    0.86791    0.11950   1.00
C2       0.21346    0.75414    0.19850   1.00
C3       0.05425    0.79869    0.12145   1.00
C3       0.15978    0.70722    0.18613   1.00
C3       0.12219    0.91357    0.13353   1.00
C3       0.23745    0.82404    0.19483   1.00
H1       0.06588    0.72616    0.13666   1.00
H1       0.09291    0.69185    0.16304   1.00
C5       0.20258    0.94233    0.16270   1.00
C5       0.23568    0.92040    0.17689   1.00
H1       0.01949    0.76314    0.11161   1.00
H1       0.13985    0.65574    0.18817   1.00
H1       0.13601    0.96347    0.13181   1.00
H1       0.27585    0.85726    0.20400   1.00
C6       0.21974    1.01607    0.16194   1.00
C6       0.29712    0.97173    0.18886   1.00
H2       0.17266    1.01783    0.16069   1.00
H2       0.33548    0.95611    0.18887   1.00
H2       0.23986    1.04178    0.17633   1.00
H2       0.32392    1.02068    0.18117   1.00
C6       0.27131    1.05796    0.14463   1.00
C6       0.27897    0.98303    0.21094   1.00
H2       0.25675    1.02792    0.13067   1.00
H2       0.24370    0.93378    0.21779   1.00
C6       0.28109    1.12981    0.13948   1.00
C6       0.33938    1.02288    0.22611   1.00
H2       0.32092    1.06440    0.14877   1.00
H2       0.25033    1.00996    0.20980   1.00
C6       0.21540    1.12435    0.13035   1.00
C6       0.37626    0.98250    0.23113   1.00
C6       0.30276    1.17666    0.15840   1.00
C6       0.39193    1.09413    0.21779   1.00
C6       0.33843    1.16421    0.12336   1.00
C6       0.31019    1.03327    0.24625   1.00
H2       0.19813    1.09069    0.11715   1.00
H2       0.34033    0.93149    0.23674   1.00
H2       0.17399    1.10439    0.14134   1.00
H2       0.40165    0.97696    0.21785   1.00
H2       0.22413    1.17417    0.12551   1.00
H2       0.41515    1.00843    0.24276   1.00
H2       0.31416    1.22806    0.15436   1.00
H2       0.43118    1.12334    0.22905   1.00
H2       0.26218    1.15717    0.16969   1.00
H2       0.41746    1.08968    0.20434   1.00
H2       0.34811    1.18023    0.16537   1.00
H2       0.36702    1.12309    0.21373   1.00
H2       0.32532    1.13346    0.10957   1.00
H2       0.27323    0.98434    0.25289   1.00
H2       0.34686    1.21449    0.11916   1.00
H2       0.35049    1.06055    0.25741   1.00
H2       0.38658    1.17077    0.12907   1.00
H2       0.28466    1.06272    0.24376   1.00
C4       0.98455    0.50880    0.68535   1.00
C4       1.03750    0.53513    0.67046   1.00
C3       0.94280    0.43761    0.68913   1.00
C3       1.05711    0.49283    0.65984   1.00
C3       0.97208    0.55466    0.69704   1.00
C3       1.07281    0.60638    0.66585   1.00
C2       0.87967    0.45565    0.71615   1.00
C2       1.14227    0.58776    0.63964   1.00
C3       0.89216    0.41174    0.70411   1.00
C3       1.10764    0.51816    0.64482   1.00
C3       0.92028    0.52627    0.71223   1.00
C3       1.12369    0.63007    0.65037   1.00
H1       0.94716    0.40184    0.68099   1.00
H1       1.03588    0.44215    0.66276   1.00
C5       1.01053    0.62668    0.69335   1.00
C5       1.05729    0.65195    0.67664   1.00
H1       0.86397    0.35988    0.70614   1.00
H1       1.11923    0.48495    0.63766   1.00
H1       0.91023    0.55727    0.72094   1.00
H1       1.14958    0.68030    0.64657   1.00
C6       1.00185    0.67505    0.70724   1.00
C6       1.08982    0.72581    0.67012   1.00
H2       1.00059    0.65918    0.72291   1.00
H2       1.08843    0.72813    0.65363   1.00
H2       1.04685    0.72556    0.70726   1.00
H2       1.05905    0.74826    0.67450   1.00
C6       0.93787    0.68160    0.70195   1.00
C6       1.16394    0.77124    0.67855   1.00
H2       0.89422    0.63101    0.69898   1.00
H2       1.19247    0.74434    0.67684   1.00
C6       0.91513    0.71778    0.71780   1.00
C6       1.20797    0.84423    0.66928   1.00
H2       0.94804    0.70898    0.68756   1.00
H2       1.16012    0.77648    0.69490   1.00
C6       0.88922    0.67604    0.73772   1.00
C6       1.22515    0.84117    0.64667   1.00
C6       0.97368    0.79060    0.72281   1.00
C6       1.17193    0.88682    0.67124   1.00
C6       0.85524    0.72392    0.70865   1.00
C6       1.27640    0.88186    0.68107   1.00
H2       0.84855    0.62397    0.73466   1.00
H2       1.24966    0.81049    0.64473   1.00
H2       0.92998    0.67327    0.74562   1.00
H2       1.17952    0.81902    0.63725   1.00
H2       0.86910    0.69920    0.74811   1.00
H2       1.25970    0.89205    0.64074   1.00
H2       0.95595    0.81713    0.73274   1.00
H2       1.20503    0.93908    0.66607   1.00
H2       1.01535    0.78896    0.73056   1.00
H2       1.12570    0.86507    0.66208   1.00
H2       0.99383    0.82064    0.70899   1.00
H2       1.15799    0.88859    0.68698   1.00
H2       0.81214    0.67371    0.70503   1.00
H2       1.30431    0.85420    0.67999   1.00
H2       0.83721    0.74853    0.71925   1.00
H2       1.30921    0.93306    0.67506   1.00
H2       0.87077    0.75409    0.69474   1.00
H2       1.26773    0.88688    0.69711   1.00
C4       0.52390    0.01562    0.68531   1.00
C4       0.49713    -0.03738   0.67044   1.00
C3       0.49704    0.06001    0.68829   1.00
C3       0.43729    -0.05431   0.65902   1.00
C3       0.57974    0.02542    0.69779   1.00
C3       0.53075    -0.07552   0.66666   1.00
C2       0.57582    0.12068    0.71605   1.00
C2       0.44481    -0.14231   0.63966   1.00
C3       0.52189    0.11074    0.70325   1.00
C3       0.41203    -0.10491   0.64402   1.00
C3       0.60331    0.07743    0.71292   1.00
C3       0.50359    -0.12638   0.65118   1.00
H1       0.45886    0.05759    0.67957   1.00
H1       0.40942    -0.03097   0.66131   1.00
C5       0.61078    -0.01580   0.69493   1.00
C5       0.58955    -0.06275   0.67827   1.00
H1       0.50013    0.14091    0.70468   1.00
H1       0.36880    -0.11450   0.63626   1.00
H1       0.64261    0.08563    0.72218   1.00
H1       0.52635    -0.15424   0.64796   1.00
C6       0.66490    -0.00979   0.70963   1.00
C6       0.62881    -0.09833   0.67266   1.00
H2       0.64876    -0.00761   0.72505   1.00
H2       0.63459    -0.09723   0.65623   1.00
H2       0.66786    -0.05622   0.71009   1.00
H2       0.68159    -0.06955   0.67762   1.00
C6       0.73751    0.05204    0.70493   1.00
C6       0.59591    -0.17274   0.68122   1.00
H2       0.73347    0.09714    0.70152   1.00
H2       0.54075    -0.19908   0.67887   1.00
C6       0.79394    0.07238    0.72151   1.00
C6       0.62288    -0.21949   0.67276   1.00
H2       0.75552    0.04059    0.69091   1.00
H2       0.60281    -0.16918   0.69766   1.00
C6       0.77740    0.09995    0.74096   1.00
C6       0.60519    -0.23621   0.64998   1.00
C6       0.80404    0.01163    0.72720   1.00
C6       0.70094    -0.18666   0.67566   1.00
C6       0.86246    0.13024    0.71293   1.00
C6       0.58780    -0.28794   0.68460   1.00
H2       0.76887    0.14221    0.73741   1.00
H2       0.55050    -0.25846   0.64738   1.00
H2       0.73192    0.06051    0.74850   1.00
H2       0.63163    -0.19075   0.64059   1.00
H2       0.81919    0.11837    0.75185   1.00
H2       0.61997    -0.27255   0.64459   1.00
H2       0.84672    0.02756    0.73766   1.00
H2       0.71846    -0.22165   0.67105   1.00
H2       0.75875    -0.02874   0.73460   1.00
H2       0.72836    -0.14063   0.66652   1.00
H2       0.81435    -0.00965   0.71371   1.00
H2       0.71493    -0.17307   0.69151   1.00
H2       0.85830    0.17477    0.70886   1.00
H2       0.53247    -0.31362   0.68287   1.00
H2       0.90348    0.14655    0.72403   1.00
H2       0.60469    -0.32259   0.67913   1.00
H2       0.87762    0.11342    0.69938   1.00
H2       0.59951    -0.27964   0.70076   1.00
C4       0.49169    0.47608    0.68531   1.00
C4       0.46546    0.50285    0.67044   1.00
C3       0.56294    0.50306    0.68833   1.00
C3       0.50834    0.56278    0.65905   1.00
C3       0.44565    0.42013    0.69776   1.00
C3       0.39371    0.46913    0.66663   1.00
C2       0.54483    0.42417    0.71605   1.00
C2       0.41284    0.55516    0.63966   1.00
C3       0.58883    0.47821    0.70328   1.00
C3       0.48300    0.58804    0.64405   1.00
C3       0.47408    0.39657    0.71289   1.00
C3       0.37000    0.49628    0.65115   1.00
H1       0.59871    0.54133    0.67963   1.00
H1       0.55953    0.59072    0.66137   1.00
C5       0.37340    0.38898    0.69486   1.00
C5       0.34770    0.41023    0.67820   1.00
H1       0.64075    0.50005    0.70474   1.00
H1       0.51663    0.63134    0.63632   1.00
H1       0.44299    0.35720    0.72213   1.00
H1       0.31940    0.47346    0.64790   1.00
C6       0.32527    0.33474    0.70953   1.00
C6       0.27290    0.37088    0.67255   1.00
H2       0.34349    0.35081    0.72496   1.00
H2       0.26831    0.36518    0.65612   1.00
H2       0.27583    0.33167    0.70997   1.00
H2       0.24896    0.31807    0.67749   1.00
C6       0.31468    0.26222    0.70481   1.00
C6       0.23121    0.40360    0.68111   1.00
H2       0.36387    0.26638    0.70141   1.00
H2       0.25995    0.45877    0.67878   1.00
C6       0.27857    0.20568    0.72136   1.00
C6       0.15752    0.37654    0.67261   1.00
H2       0.28530    0.24423    0.69077   1.00
H2       0.22779    0.39660    0.69755   1.00
C6       0.32258    0.22218    0.74082   1.00
C6       0.15858    0.39434    0.64985   1.00
C6       0.20763    0.19539    0.72701   1.00
C6       0.11239    0.29845    0.67547   1.00
C6       0.26810    0.13726    0.71275   1.00
C6       0.12397    0.41144    0.68445   1.00
H2       0.37343    0.23084    0.73729   1.00
H2       0.19095    0.44905    0.64727   1.00
H2       0.32848    0.26758    0.74838   1.00
H2       0.17773    0.36802    0.64045   1.00
H2       0.29922    0.18033    0.75170   1.00
H2       0.10747    0.37949    0.64443   1.00
H2       0.18089    0.15265    0.73746   1.00
H2       0.05989    0.28086    0.67084   1.00
H2       0.21241    0.24060    0.73443   1.00
H2       0.13114    0.27115    0.66633   1.00
H2       0.17611    0.18510    0.71351   1.00
H2       0.11193    0.28438    0.69132   1.00
H2       0.31686    0.14154    0.70870   1.00
H2       0.15353    0.46679    0.68276   1.00
H2       0.24340    0.09617    0.72383   1.00
H2       0.07244    0.39449    0.67896   1.00
H2       0.23620    0.12211    0.69919   1.00
H2       0.12049    0.39964    0.70061   1.00
C4       0.49573    0.02666    0.18204   1.00
C4       0.47066    -0.02315   0.16622   1.00
C3       0.55777    0.04576    0.19251   1.00
C3       0.50923    -0.05199   0.15833   1.00
C3       0.45791    0.05904    0.18782   1.00
C3       0.40466    -0.04548   0.15776   1.00
C2       0.54816    0.12978    0.21335   1.00
C2       0.41869    -0.12632   0.13492   1.00
C3       0.58347    0.09597    0.20762   1.00
C3       0.48402    -0.10225   0.14323   1.00
C3       0.48603    0.11019    0.20321   1.00
C3       0.38070    -0.09704   0.14248   1.00
H1       0.58628    0.02343    0.18970   1.00
H1       0.55737    -0.03708   0.16312   1.00
C5       0.39368    0.03989    0.17842   1.00
C5       0.36463    -0.01624   0.16448   1.00
H1       0.62865    0.10763    0.21455   1.00
H1       0.51425    -0.12120   0.13825   1.00
H1       0.46087    0.13469    0.20764   1.00
H1       0.33384    -0.11457   0.13620   1.00
C6       0.35783    0.07957    0.18314   1.00
C6       0.29211    -0.04543   0.15698   1.00
H2       0.39513    0.13389    0.18310   1.00
H2       0.26683    -0.10092   0.15733   1.00
H2       0.32405    0.07600    0.17089   1.00
H2       0.26121    -0.03560   0.16756   1.00
C6       0.31635    0.05704    0.20345   1.00
C6       0.28751    -0.01844   0.13548   1.00
H2       0.34683    0.05090    0.21523   1.00
H2       0.32574    -0.01894   0.12547   1.00
C6       0.28994    0.10397    0.21215   1.00
C6       0.21714    -0.05600   0.12429   1.00
H2       0.27251    0.00613    0.20113   1.00
H2       0.30243    0.03527    0.13706   1.00
C6       0.34958    0.17423    0.21894   1.00
C6       0.19722    -0.13010   0.11853   1.00
C6       0.24522    0.11504    0.19654   1.00
C6       0.15953    -0.05716   0.13727   1.00
C6       0.24543    0.06887    0.23112   1.00
C6       0.22284    -0.01714   0.10432   1.00
H2       0.38277    0.16814    0.22972   1.00
H2       0.23739    -0.13112   0.10963   1.00
H2       0.38065    0.20355    0.20609   1.00
H2       0.18823    -0.16156   0.13194   1.00
H2       0.33061    0.20472    0.22625   1.00
H2       0.15054    -0.15424   0.10952   1.00
H2       0.22311    0.14370    0.20323   1.00
H2       0.11179    -0.07906   0.12878   1.00
H2       0.27530    0.14376    0.18346   1.00
H2       0.15020    -0.08789   0.15088   1.00
H2       0.20364    0.06629    0.19119   1.00
H2       0.17292    -0.00568   0.14189   1.00
H2       0.27486    0.06050    0.24274   1.00
H2       0.26245    -0.01546   0.09448   1.00
H2       0.22611    0.09998    0.23784   1.00
H2       0.17496    -0.04175   0.09588   1.00
H2       0.20160    0.01950    0.22723   1.00
H2       0.23548    0.03525    0.10741   1.00
C4       0.98375    0.47694    0.18514   1.00
C4       1.03493    0.50620    0.16976   1.00
C3       0.98780    0.43800    0.20150   1.00
C3       1.09702    0.50469    0.17081   1.00
C3       0.92590    0.48639    0.18435   1.00
C3       1.02454    0.53851    0.15258   1.00
C2       0.88198    0.42057    0.21678   1.00
C2       1.13701    0.56239    0.13819   1.00
C3       0.93872    0.41091    0.21691   1.00
C3       1.14642    0.53159    0.15548   1.00
C3       0.87724    0.45829    0.20040   1.00
C3       1.07594    0.56493    0.13725   1.00
H1       1.02622    0.42727    0.20272   1.00
H1       1.10898    0.48460    0.18285   1.00
C5       0.91756    0.52268    0.16780   1.00
C5       0.96436    0.54413    0.15110   1.00
H1       0.94472    0.38353    0.22833   1.00
H1       1.18998    0.52865    0.15711   1.00
H1       0.83566    0.46432    0.20045   1.00
H1       1.07018    0.58785    0.12475   1.00
C6       0.86006    0.53853    0.16827   1.00
C6       0.95063    0.57186    0.13187   1.00
H2       0.85687    0.55604    0.18341   1.00
H2       0.96172    0.54952    0.11881   1.00
H2       0.87163    0.58294    0.15911   1.00
H2       0.89655    0.55346    0.12984   1.00
C6       0.78993    0.47720    0.16129   1.00
C6       0.99047    0.65172    0.13088   1.00
H2       0.78244    0.43014    0.16826   1.00
H2       1.04312    0.67115    0.13579   1.00
C6       0.72443    0.48212    0.16539   1.00
C6       0.99236    0.68571    0.11003   1.00
H2       0.79318    0.47033    0.14500   1.00
H2       0.96821    0.67022    0.14216   1.00
C6       0.70985    0.48102    0.18842   1.00
C6       1.03304    0.67085    0.09387   1.00
C6       0.72989    0.54714    0.15581   1.00
C6       0.91964    0.66184    0.10191   1.00
C6       0.66241    0.41926    0.15566   1.00
C6       1.02887    0.76418    0.11305   1.00
H2       0.70681    0.43625    0.19571   1.00
H2       1.08430    0.68611    0.09928   1.00
H2       0.74955    0.52613    0.19604   1.00
H2       1.00786    0.61685    0.09008   1.00
H2       0.66165    0.47969    0.19110   1.00
H2       1.03810    0.69857    0.07984   1.00
H2       0.68219    0.54763    0.15750   1.00
H2       0.92143    0.68943    0.08813   1.00
H2       0.76987    0.59296    0.16310   1.00
H2       0.89329    0.60768    0.09821   1.00
H2       0.74156    0.54989    0.13966   1.00
H2       0.88944    0.67042    0.11317   1.00
H2       0.65582    0.37187    0.16207   1.00
H2       1.08084    0.78381    0.11858   1.00
H2       0.61524    0.42016    0.15824   1.00
H2       1.03187    0.79030    0.09884   1.00
H2       0.66903    0.41794    0.13930   1.00
H2       1.00174    0.77805    0.12401   1.00
C4       0.52372    0.50800    0.18528   1.00
C4       0.49434    0.53009    0.16999   1.00
C3       0.57037    0.55338    0.20002   1.00
C3       0.50386    0.59723    0.16966   1.00
C3       0.50647    0.43806    0.18607   1.00
C3       0.45364    0.48393    0.15433   1.00
C2       0.58060    0.46274    0.21681   1.00
C2       0.43772    0.57587    0.13852   1.00
C3       0.59774    0.53150    0.21538   1.00
C3       0.47675    0.61965    0.15437   1.00
C3       0.53516    0.41777    0.20202   1.00
C3       0.42727    0.50888    0.13897   1.00
H1       0.58673    0.60417    0.20002   1.00
H1       0.53028    0.63216    0.18064   1.00
C5       0.46202    0.39056    0.17113   1.00
C5       0.43989    0.41485    0.15433   1.00
H1       0.63090    0.56671    0.22560   1.00
H1       0.48569    0.66877    0.15496   1.00
H1       0.52374    0.36839    0.20317   1.00
H1       0.39849    0.47773    0.12751   1.00
C6       0.43848    0.31546    0.17341   1.00
C6       0.40294    0.36878    0.13653   1.00
H2       0.42452    0.30059    0.18918   1.00
H2       0.42361    0.39709    0.12249   1.00
H2       0.39031    0.28372    0.16569   1.00
H2       0.41501    0.32819    0.13498   1.00
C6       0.49214    0.29617    0.16568   1.00
C6       0.32356    0.33654    0.13766   1.00
H2       0.54290    0.33399    0.17104   1.00
H2       0.31114    0.37555    0.14214   1.00
C6       0.48025    0.22386    0.17134   1.00
C6       0.28142    0.30061    0.11814   1.00
H2       0.49457    0.30090    0.14917   1.00
H2       0.30499    0.29946    0.15002   1.00
C6       0.48697    0.21666    0.19450   1.00
C6       0.29687    0.35223    0.10067   1.00
C6       0.40954    0.16648    0.16409   1.00
C6       0.29502    0.24357    0.11073   1.00
C6       0.53563    0.21368    0.16065   1.00
C6       0.20438    0.26740    0.12327   1.00
H2       0.53597    0.25714    0.20015   1.00
H2       0.28883    0.39379    0.10552   1.00
H2       0.44684    0.21910    0.20290   1.00
H2       0.34934    0.37449    0.09543   1.00
H2       0.48332    0.16793    0.19813   1.00
H2       0.26389    0.32756    0.08764   1.00
H2       0.40371    0.11628    0.16680   1.00
H2       0.26186    0.21566    0.09801   1.00
H2       0.36859    0.16846    0.17219   1.00
H2       0.34755    0.26479    0.10560   1.00
H2       0.40292    0.17123    0.14790   1.00
H2       0.28590    0.20730    0.12288   1.00
H2       0.58668    0.25257    0.16541   1.00
H2       0.19187    0.30571    0.12839   1.00
H2       0.52974    0.16394    0.16425   1.00
H2       0.17277    0.24199    0.11004   1.00
H2       0.53262    0.21682    0.14420   1.00
H2       0.18998    0.22938    0.13525   1.00
C4       0.69340    0.82857    0.65133   1.00
C4       0.64350    0.80333    0.66713   1.00
C3       0.71582    0.89286    0.64183   1.00
C3       0.61788    0.84348    0.67597   1.00
C3       0.72247    0.78864    0.64457   1.00
C3       0.61773    0.73549    0.67457   1.00
C2       0.79675    0.88117    0.62009   1.00
C2       0.54014    0.75121    0.69837   1.00
C3       0.76615    0.91862    0.62675   1.00
C3       0.56754    0.81823    0.69104   1.00
C3       0.77386    0.81688    0.62926   1.00
C3       0.56621    0.71157    0.68986   1.00
H1       0.69594    0.92309    0.64536   1.00
H1       0.63534    0.89282    0.67193   1.00
C5       0.69988    0.72229    0.65297   1.00
C5       0.64362    0.69363    0.66686   1.00
H1       0.78029    0.96545    0.62056   1.00
H1       0.55101    0.84967    0.69674   1.00
H1       0.79606    0.79023    0.62415   1.00
H1       0.54629    0.66347    0.69544   1.00
C6       0.73612    0.68376    0.64724   1.00
C6       0.61083    0.61967    0.67330   1.00
H2       0.79098    0.71879    0.64747   1.00
H2       0.55558    0.59712    0.67299   1.00
H2       0.73045    0.64730    0.65888   1.00
H2       0.61854    0.58899    0.66208   1.00
C6       0.71196    0.64573    0.62640   1.00
C6       0.63645    0.60987    0.69444   1.00
H2       0.70801    0.67931    0.61525   1.00
H2       0.63822    0.64760    0.70514   1.00
C6       0.75583    0.61710    0.61681   1.00
C6       0.59565    0.53804    0.70467   1.00
H2       0.65996    0.60341    0.62838   1.00
H2       0.68936    0.62217    0.69265   1.00
C6       0.82757    0.67520    0.61049   1.00
C6       0.52265    0.52116    0.71073   1.00
C6       0.76362    0.56797    0.63148   1.00
C6       0.59110    0.48095    0.69067   1.00
C6       0.71930    0.57651    0.59737   1.00
C6       0.63341    0.53834    0.72436   1.00
H2       0.82384    0.71142    0.60038   1.00
H2       0.52405    0.56110    0.72036   1.00
H2       0.85773    0.70331    0.62361   1.00
H2       0.49178    0.51598    0.69746   1.00
H2       0.85598    0.65501    0.60255   1.00
H2       0.49632    0.47322    0.71909   1.00
H2       0.79006    0.54456    0.62414   1.00
H2       0.56688    0.43186    0.69848   1.00
H2       0.79315    0.59505    0.64483   1.00
H2       0.56092    0.47540    0.67718   1.00
H2       0.71383    0.52735    0.63650   1.00
H2       0.64179    0.49231    0.68583   1.00
H2       0.71314    0.60913    0.58639   1.00
H2       0.63737    0.57739    0.73489   1.00
H2       0.74829    0.55582    0.59003   1.00
H2       0.60655    0.48927    0.73215   1.00
H2       0.66879    0.53384    0.60091   1.00
H2       0.68491    0.54862    0.72103   1.00
C4       0.12988    0.30807    0.65096   1.00
C4       0.15460    0.35953    0.66630   1.00
C3       0.13841    0.24994    0.65215   1.00
C3       0.18308    0.35296    0.68485   1.00
C3       0.09529    0.31419    0.63364   1.00
C3       0.15101    0.42018    0.66324   1.00
C2       0.07699    0.20228    0.62044   1.00
C2       0.20766    0.46502    0.69691   1.00
C3       0.11253    0.19843    0.63743   1.00
C3       0.20914    0.40416    0.69967   1.00
C3       0.06937    0.26043    0.61905   1.00
C3       0.17846    0.47126    0.67866   1.00
H1       0.16434    0.24318    0.66366   1.00
H1       0.18534    0.31043    0.68839   1.00
C5       0.08766    0.37296    0.63118   1.00
C5       0.12029    0.42845    0.64525   1.00
H1       0.12014    0.15766    0.63921   1.00
H1       0.22927    0.39643    0.71269   1.00
H1       0.04408    0.26272    0.60660   1.00
H1       0.17727    0.51528    0.67697   1.00
C6       0.04472    0.37533    0.61394   1.00
C6       0.12338    0.49577    0.64122   1.00
H2       -0.00195   0.32607    0.61281   1.00
H2       0.17446    0.53730    0.64471   1.00
H2       0.02476    0.40902    0.61734   1.00
H2       0.11954    0.50368    0.62512   1.00
C6       0.08382    0.39722    0.59322   1.00
C6       0.06732    0.50351    0.65290   1.00
H2       0.11233    0.37047    0.59106   1.00
H2       0.06409    0.48609    0.66854   1.00
C6       0.04080    0.38693    0.57359   1.00
C6       0.07475    0.57604    0.65354   1.00
H2       0.12247    0.45114    0.59435   1.00
H2       0.01804    0.46819    0.64610   1.00
C6       -0.00814   0.31029    0.56904   1.00
C6       0.13830    0.62714    0.66588   1.00
C6       -0.00096   0.42396    0.57511   1.00
C6       0.07887    0.60482    0.63194   1.00
C6       0.09032    0.41755    0.55532   1.00
C6       0.01096    0.57038    0.66419   1.00
H2       0.01966    0.28247    0.56821   1.00
H2       0.13748    0.60778    0.68111   1.00
H2       -0.04711   0.28644    0.58071   1.00
H2       0.18539    0.63679    0.65854   1.00
H2       -0.03441   0.30350    0.55461   1.00
H2       0.14042    0.67614    0.66742   1.00
H2       -0.02689   0.42058    0.56083   1.00
H2       0.07912    0.65311    0.63251   1.00
H2       -0.03986   0.40123    0.58686   1.00
H2       0.12541    0.61421    0.62425   1.00
H2       0.03213    0.47777    0.57872   1.00
H2       0.03541    0.56914    0.62279   1.00
H2       0.12062    0.39261    0.55344   1.00
H2       0.00605    0.55092    0.67962   1.00
H2       0.06257    0.41118    0.54119   1.00
H2       0.01398    0.61996    0.66513   1.00
H2       0.12536    0.47200    0.55744   1.00
H2       -0.03556   0.53599    0.65595   1.00
C4       0.17773    0.86990    0.65102   1.00
C4       0.20443    0.84525    0.66640   1.00
C3       0.10983    0.85827    0.65164   1.00
C3       0.16772    0.81360    0.68448   1.00
C3       0.21979    0.90763    0.63426   1.00
C3       0.27032    0.85217    0.66386   1.00
C2       0.12476    0.92259    0.62046   1.00
C2       0.25692    0.79236    0.69704   1.00
C3       0.08415    0.88404    0.63691   1.00
C3       0.19290    0.78762    0.69931   1.00
C3       0.19182    0.93332    0.61963   1.00
C3       0.29396    0.82469    0.67926   1.00
H1       0.07626    0.83006    0.66272   1.00
H1       0.12159    0.80884    0.68765   1.00
C5       0.28762    0.91852    0.63236   1.00
C5       0.31088    0.88612    0.64638   1.00
H1       0.03483    0.87411    0.63826   1.00
H1       0.16381    0.76512    0.71197   1.00
H1       0.22031    0.96077    0.60757   1.00
H1       0.34035    0.82822    0.67794   1.00
C6       0.33397    0.96460    0.61576   1.00
C6       0.37721    0.88665    0.64283   1.00
H2       0.32919    1.01010    0.61491   1.00
H2       0.36949    0.83599    0.64592   1.00
H2       0.38745    0.98620    0.61970   1.00
H2       0.39098    0.89288    0.62686   1.00
C6       0.32076    0.92814    0.59467   1.00
C6       0.43833    0.94293    0.65535   1.00
H2       0.26589    0.89798    0.59191   1.00
H2       0.42177    0.94354    0.67089   1.00
C6       0.35453    0.97399    0.57559   1.00
C6       0.50519    0.93872    0.65644   1.00
H2       0.33812    0.89107    0.59567   1.00
H2       0.45103    0.99244    0.64898   1.00
C6       0.32438    1.02092    0.57115   1.00
C6       0.49404    0.87470    0.66827   1.00
C6       0.43290    1.01826    0.57798   1.00
C6       0.53321    0.93846    0.63503   1.00
C6       0.33981    0.92701    0.55687   1.00
C6       0.56027    1.00239    0.66795   1.00
H2       0.26894    0.99126    0.56971   1.00
H2       0.47320    0.87280    0.68335   1.00
H2       0.33653    1.05822    0.58318   1.00
H2       0.45892    0.82790    0.66035   1.00
H2       0.34477    1.04917    0.55705   1.00
H2       0.54191    0.87469    0.67016   1.00
H2       0.45643    1.04632    0.56406   1.00
H2       0.58230    0.94044    0.63596   1.00
H2       0.44613    1.05554    0.59010   1.00
H2       0.49841    0.89225    0.62676   1.00
H2       0.45525    0.98656    0.58154   1.00
H2       0.54017    0.98228    0.62623   1.00
H2       0.28501    0.89507    0.55437   1.00
H2       0.54328    1.00463    0.68329   1.00
H2       0.36203    0.95676    0.54310   1.00
H2       0.60791    1.00154    0.66922   1.00
H2       0.36109    0.89352    0.55891   1.00
H2       0.57141    1.04930    0.66011   1.00
