data_IRMOF10_interpen_symm_ligand4cp_label_j_2.

_audit_creation_method             'generated by an auxiliary program of Tobunporous'

_symmetry_space_group_name_H-M     'P 1'
_symmetry_Int_Tables_number        1
_symmetry_cell_setting             triclinic

_cell_length_a                    22.6523
_cell_length_b                    22.6523
_cell_length_c                    65.9502
_cell_angle_alpha                 90.0000
_cell_angle_beta                  90.0000
_cell_angle_gamma                 120.0000

loop_
_atom_site_label
_atom_site_fract_x
_atom_site_fract_y
_atom_site_fract_z
_atom_site_occupancy
O1       0.00000    0.00000    0.57470   1.00
Zn1      0.00000    0.00000    0.54560   1.00
Zn1      0.94843    0.04287    0.58357   1.00
Zn1      0.09443    0.05157    0.58357   1.00
Zn1      0.95713    0.90557    0.58357   1.00
O2       0.93860    0.02610    0.53560   1.00
O2       0.08750    0.06140    0.53560   1.00
O2       0.97390    0.91250    0.53560   1.00
O2       0.91300    0.07160    0.56150   1.00
O2       0.00463    0.12027    0.60077   1.00
O2       0.87413    0.98077    0.60037   1.00
O2       0.15860    0.08700    0.56150   1.00
O2       0.10663    0.12587    0.60037   1.00
O2       0.11563    0.99537    0.60077   1.00
O2       0.92840    0.84140    0.56150   1.00
O2       0.87973    0.88437    0.60077   1.00
O2       0.01923    0.89337    0.60037   1.00
C1       0.91390    0.06020    0.54330   1.00
C1       0.14630    0.08610    0.54330   1.00
C1       0.93980    0.85370    0.54330   1.00
C1       0.06663    0.14397    0.60637   1.00
C1       0.85603    0.92267    0.60637   1.00
C1       0.07733    0.93337    0.60637   1.00
O1       0.00000    0.00000    0.92530   1.00
Zn1      0.00000    0.00000    0.95440   1.00
Zn1      0.04287    0.94843    0.91643   1.00
Zn1      0.05157    0.09443    0.91643   1.00
Zn1      0.90557    0.95713    0.91643   1.00
O2       0.02610    0.93860    0.96440   1.00
O2       0.06140    0.08750    0.96440   1.00
O2       0.91250    0.97390    0.96440   1.00
O2       0.07160    0.91300    0.93850   1.00
O2       0.12027    0.00463    0.89923   1.00
O2       0.98077    0.87413    0.89963   1.00
O2       0.08700    0.15860    0.93850   1.00
O2       0.12587    0.10663    0.89963   1.00
O2       0.99537    0.11563    0.89923   1.00
O2       0.84140    0.92840    0.93850   1.00
O2       0.88437    0.87973    0.89923   1.00
O2       0.89337    0.01923    0.89963   1.00
C1       0.06020    0.91390    0.95670   1.00
C1       0.08610    0.14630    0.95670   1.00
C1       0.85370    0.93980    0.95670   1.00
C1       0.14397    0.06663    0.89363   1.00
C1       0.92267    0.85603    0.89363   1.00
C1       0.93337    0.07733    0.89363   1.00
O1       0.00000    0.00000    0.42530   1.00
Zn1      0.00000    0.00000    0.45440   1.00
Zn1      0.05157    0.95713    0.41643   1.00
Zn1      0.90557    0.94843    0.41643   1.00
Zn1      0.04287    0.09443    0.41643   1.00
O2       0.06140    0.97390    0.46440   1.00
O2       0.91250    0.93860    0.46440   1.00
O2       0.02610    0.08750    0.46440   1.00
O2       0.08700    0.92840    0.43850   1.00
O2       0.99537    0.87973    0.39923   1.00
O2       0.12587    0.01923    0.39963   1.00
O2       0.84140    0.91300    0.43850   1.00
O2       0.89337    0.87413    0.39963   1.00
O2       0.88437    0.00463    0.39923   1.00
O2       0.07160    0.15860    0.43850   1.00
O2       0.12027    0.11563    0.39923   1.00
O2       0.98077    0.10663    0.39963   1.00
C1       0.08610    0.93980    0.45670   1.00
C1       0.85370    0.91390    0.45670   1.00
C1       0.06020    0.14630    0.45670   1.00
C1       0.93337    0.85603    0.39363   1.00
C1       0.14397    0.07733    0.39363   1.00
C1       0.92267    0.06663    0.39363   1.00
O1       0.00000    0.00000    0.07470   1.00
Zn1      0.00000    0.00000    0.04560   1.00
Zn1      0.95713    0.05157    0.08357   1.00
Zn1      0.94843    0.90557    0.08357   1.00
Zn1      0.09443    0.04287    0.08357   1.00
O2       0.97390    0.06140    0.03560   1.00
O2       0.93860    0.91250    0.03560   1.00
O2       0.08750    0.02610    0.03560   1.00
O2       0.92840    0.08700    0.06150   1.00
O2       0.87973    0.99537    0.10077   1.00
O2       0.01923    0.12587    0.10037   1.00
O2       0.91300    0.84140    0.06150   1.00
O2       0.87413    0.89337    0.10037   1.00
O2       0.00463    0.88437    0.10077   1.00
O2       0.15860    0.07160    0.06150   1.00
O2       0.11563    0.12027    0.10077   1.00
O2       0.10663    0.98077    0.10037   1.00
C1       0.93980    0.08610    0.04330   1.00
C1       0.91390    0.85370    0.04330   1.00
C1       0.14630    0.06020    0.04330   1.00
C1       0.85603    0.93337    0.10637   1.00
C1       0.07733    0.14397    0.10637   1.00
C1       0.06663    0.92267    0.10637   1.00
O1       0.66667    0.33333    0.90803   1.00
Zn1      0.66667    0.33333    0.87893   1.00
Zn1      0.61510    0.37620    0.91690   1.00
Zn1      0.76110    0.38490    0.91690   1.00
Zn1      0.62380    0.23890    0.91690   1.00
O2       0.60527    0.35943    0.86893   1.00
O2       0.75417    0.39473    0.86893   1.00
O2       0.64057    0.24583    0.86893   1.00
O2       0.57967    0.40493    0.89483   1.00
O2       0.67130    0.45360    0.93410   1.00
O2       0.54080    0.31410    0.93370   1.00
O2       0.82527    0.42033    0.89483   1.00
O2       0.77330    0.45920    0.93370   1.00
O2       0.78230    0.32870    0.93410   1.00
O2       0.59507    0.17473    0.89483   1.00
O2       0.54640    0.21770    0.93410   1.00
O2       0.68590    0.22670    0.93370   1.00
C1       0.58057    0.39353    0.87663   1.00
C1       0.81297    0.41943    0.87663   1.00
C1       0.60647    0.18703    0.87663   1.00
C1       0.73330    0.47730    0.93970   1.00
C1       0.52270    0.25600    0.93970   1.00
C1       0.74400    0.26670    0.93970   1.00
O1       0.66667    0.33333    0.25863   1.00
Zn1      0.66667    0.33333    0.28773   1.00
Zn1      0.70953    0.28177    0.24977   1.00
Zn1      0.71823    0.42777    0.24977   1.00
Zn1      0.57223    0.29047    0.24977   1.00
O2       0.69277    0.27193    0.29773   1.00
O2       0.72807    0.42083    0.29773   1.00
O2       0.57917    0.30723    0.29773   1.00
O2       0.73827    0.24633    0.27183   1.00
O2       0.78693    0.33797    0.23257   1.00
O2       0.64743    0.20747    0.23297   1.00
O2       0.75367    0.49193    0.27183   1.00
O2       0.79253    0.43997    0.23297   1.00
O2       0.66203    0.44897    0.23257   1.00
O2       0.50807    0.26173    0.27183   1.00
O2       0.55103    0.21307    0.23257   1.00
O2       0.56003    0.35257    0.23297   1.00
C1       0.72687    0.24723    0.29003   1.00
C1       0.75277    0.47963    0.29003   1.00
C1       0.52037    0.27313    0.29003   1.00
C1       0.81063    0.39997    0.22697   1.00
C1       0.58933    0.18937    0.22697   1.00
C1       0.60003    0.41067    0.22697   1.00
O1       0.66667    0.33333    0.75863   1.00
Zn1      0.66667    0.33333    0.78773   1.00
Zn1      0.71823    0.29047    0.74977   1.00
Zn1      0.57223    0.28177    0.74977   1.00
Zn1      0.70953    0.42777    0.74977   1.00
O2       0.72807    0.30723    0.79773   1.00
O2       0.57917    0.27193    0.79773   1.00
O2       0.69277    0.42083    0.79773   1.00
O2       0.75367    0.26173    0.77183   1.00
O2       0.66203    0.21307    0.73257   1.00
O2       0.79253    0.35257    0.73297   1.00
O2       0.50807    0.24633    0.77183   1.00
O2       0.56003    0.20747    0.73297   1.00
O2       0.55103    0.33797    0.73257   1.00
O2       0.73827    0.49193    0.77183   1.00
O2       0.78693    0.44897    0.73257   1.00
O2       0.64743    0.43997    0.73297   1.00
C1       0.75277    0.27313    0.79003   1.00
C1       0.52037    0.24723    0.79003   1.00
C1       0.72687    0.47963    0.79003   1.00
C1       0.60003    0.18937    0.72697   1.00
C1       0.81063    0.41067    0.72697   1.00
C1       0.58933    0.39997    0.72697   1.00
O1       0.66667    0.33333    0.40803   1.00
Zn1      0.66667    0.33333    0.37893   1.00
Zn1      0.62380    0.38490    0.41690   1.00
Zn1      0.61510    0.23890    0.41690   1.00
Zn1      0.76110    0.37620    0.41690   1.00
O2       0.64057    0.39473    0.36893   1.00
O2       0.60527    0.24583    0.36893   1.00
O2       0.75417    0.35943    0.36893   1.00
O2       0.59507    0.42033    0.39483   1.00
O2       0.54640    0.32870    0.43410   1.00
O2       0.68590    0.45920    0.43370   1.00
O2       0.57967    0.17473    0.39483   1.00
O2       0.54080    0.22670    0.43370   1.00
O2       0.67130    0.21770    0.43410   1.00
O2       0.82527    0.40493    0.39483   1.00
O2       0.78230    0.45360    0.43410   1.00
O2       0.77330    0.31410    0.43370   1.00
C1       0.60647    0.41943    0.37663   1.00
C1       0.58057    0.18703    0.37663   1.00
C1       0.81297    0.39353    0.37663   1.00
C1       0.52270    0.26670    0.43970   1.00
C1       0.74400    0.47730    0.43970   1.00
C1       0.73330    0.25600    0.43970   1.00
O1       0.33333    0.66667    0.24137   1.00
Zn1      0.33333    0.66667    0.21227   1.00
Zn1      0.28177    0.70953    0.25023   1.00
Zn1      0.42777    0.71823    0.25023   1.00
Zn1      0.29047    0.57223    0.25023   1.00
O2       0.27193    0.69277    0.20227   1.00
O2       0.42083    0.72807    0.20227   1.00
O2       0.30723    0.57917    0.20227   1.00
O2       0.24633    0.73827    0.22817   1.00
O2       0.33797    0.78693    0.26743   1.00
O2       0.20747    0.64743    0.26703   1.00
O2       0.49193    0.75367    0.22817   1.00
O2       0.43997    0.79253    0.26703   1.00
O2       0.44897    0.66203    0.26743   1.00
O2       0.26173    0.50807    0.22817   1.00
O2       0.21307    0.55103    0.26743   1.00
O2       0.35257    0.56003    0.26703   1.00
C1       0.24723    0.72687    0.20997   1.00
C1       0.47963    0.75277    0.20997   1.00
C1       0.27313    0.52037    0.20997   1.00
C1       0.39997    0.81063    0.27303   1.00
C1       0.18937    0.58933    0.27303   1.00
C1       0.41067    0.60003    0.27303   1.00
O1       0.33333    0.66667    0.59197   1.00
Zn1      0.33333    0.66667    0.62107   1.00
Zn1      0.37620    0.61510    0.58310   1.00
Zn1      0.38490    0.76110    0.58310   1.00
Zn1      0.23890    0.62380    0.58310   1.00
O2       0.35943    0.60527    0.63107   1.00
O2       0.39473    0.75417    0.63107   1.00
O2       0.24583    0.64057    0.63107   1.00
O2       0.40493    0.57967    0.60517   1.00
O2       0.45360    0.67130    0.56590   1.00
O2       0.31410    0.54080    0.56630   1.00
O2       0.42033    0.82527    0.60517   1.00
O2       0.45920    0.77330    0.56630   1.00
O2       0.32870    0.78230    0.56590   1.00
O2       0.17473    0.59507    0.60517   1.00
O2       0.21770    0.54640    0.56590   1.00
O2       0.22670    0.68590    0.56630   1.00
C1       0.39353    0.58057    0.62337   1.00
C1       0.41943    0.81297    0.62337   1.00
C1       0.18703    0.60647    0.62337   1.00
C1       0.47730    0.73330    0.56030   1.00
C1       0.25600    0.52270    0.56030   1.00
C1       0.26670    0.74400    0.56030   1.00
O1       0.33333    0.66667    0.09197   1.00
Zn1      0.33333    0.66667    0.12107   1.00
Zn1      0.38490    0.62380    0.08310   1.00
Zn1      0.23890    0.61510    0.08310   1.00
Zn1      0.37620    0.76110    0.08310   1.00
O2       0.39473    0.64057    0.13107   1.00
O2       0.24583    0.60527    0.13107   1.00
O2       0.35943    0.75417    0.13107   1.00
O2       0.42033    0.59507    0.10517   1.00
O2       0.32870    0.54640    0.06590   1.00
O2       0.45920    0.68590    0.06630   1.00
O2       0.17473    0.57967    0.10517   1.00
O2       0.22670    0.54080    0.06630   1.00
O2       0.21770    0.67130    0.06590   1.00
O2       0.40493    0.82527    0.10517   1.00
O2       0.45360    0.78230    0.06590   1.00
O2       0.31410    0.77330    0.06630   1.00
C1       0.41943    0.60647    0.12337   1.00
C1       0.18703    0.58057    0.12337   1.00
C1       0.39353    0.81297    0.12337   1.00
C1       0.26670    0.52270    0.06030   1.00
C1       0.47730    0.74400    0.06030   1.00
C1       0.25600    0.73330    0.06030   1.00
O1       0.33333    0.66667    0.74137   1.00
Zn1      0.33333    0.66667    0.71227   1.00
Zn1      0.29047    0.71823    0.75023   1.00
Zn1      0.28177    0.57223    0.75023   1.00
Zn1      0.42777    0.70953    0.75023   1.00
O2       0.30723    0.72807    0.70227   1.00
O2       0.27193    0.57917    0.70227   1.00
O2       0.42083    0.69277    0.70227   1.00
O2       0.26173    0.75367    0.72817   1.00
O2       0.21307    0.66203    0.76743   1.00
O2       0.35257    0.79253    0.76703   1.00
O2       0.24633    0.50807    0.72817   1.00
O2       0.20747    0.56003    0.76703   1.00
O2       0.33797    0.55103    0.76743   1.00
O2       0.49193    0.73827    0.72817   1.00
O2       0.44897    0.78693    0.76743   1.00
O2       0.43997    0.64743    0.76703   1.00
C1       0.27313    0.75277    0.70997   1.00
C1       0.24723    0.52037    0.70997   1.00
C1       0.47963    0.72687    0.70997   1.00
C1       0.18937    0.60003    0.77303   1.00
C1       0.41067    0.81063    0.77303   1.00
C1       0.39997    0.58933    0.77303   1.00
C4       0.84133    0.64026    0.48459   1.00
C4       0.86529    0.69002    0.50042   1.00
C3       0.88517    0.63988    0.46915   1.00
C3       0.93577    0.73833    0.50315   1.00
C3       0.77099    0.58858    0.48392   1.00
C3       0.81768    0.69223    0.51421   1.00
C2       0.79364    0.53768    0.45314   1.00
C2       0.91351    0.79282    0.53181   1.00
C3       0.86225    0.59002    0.45395   1.00
C3       0.95924    0.78842    0.51829   1.00
C3       0.74977    0.53852    0.46826   1.00
C3       0.84363    0.74428    0.52935   1.00
H1       0.93525    0.67622    0.46825   1.00
H1       0.97277    0.73851    0.49437   1.00
C5       0.72383    0.58802    0.49855   1.00
C5       0.74639    0.64313    0.51275   1.00
H1       0.89648    0.59242    0.44330   1.00
H1       1.01069    0.82195    0.51942   1.00
H1       0.70026    0.50069    0.46736   1.00
H1       0.81132    0.74780    0.53934   1.00
C6       0.65123    0.52901    0.49898   1.00
C6       0.69587    0.65052    0.52601   1.00
H2       0.65179    0.48142    0.49728   1.00
H2       0.70897    0.70383    0.52619   1.00
H2       0.62831    0.52261    0.51389   1.00
H2       0.64530    0.62609    0.51928   1.00
C6       0.60408    0.53558    0.48281   1.00
C6       0.69066    0.62199    0.54801   1.00
H2       0.63099    0.55182    0.46832   1.00
H2       0.74181    0.63848    0.55382   1.00
C6       0.53276    0.47119    0.47875   1.00
C6       0.65203    0.64027    0.56429   1.00
H2       0.59606    0.57730    0.48752   1.00
H2       0.66583    0.56649    0.54695   1.00
C6       0.53962    0.41270    0.46890   1.00
C6       0.69029    0.71769    0.56913   1.00
C6       0.49023    0.44477    0.49847   1.00
C6       0.57830    0.61795    0.55749   1.00
C6       0.49283    0.49110    0.46371   1.00
C6       0.64787    0.60187    0.58423   1.00
H2       0.57035    0.43004    0.45510   1.00
H2       0.74291    0.73529    0.57366   1.00
H2       0.56358    0.39328    0.47918   1.00
H2       0.69143    0.74762    0.55605   1.00
H2       0.48978    0.36989    0.46484   1.00
H2       0.66555    0.72922    0.58147   1.00
H2       0.43890    0.40298    0.49526   1.00
H2       0.55028    0.62646    0.56953   1.00
H2       0.51376    0.42570    0.50907   1.00
H2       0.57834    0.64690    0.54428   1.00
H2       0.48583    0.48538    0.50594   1.00
H2       0.55067    0.56390    0.55359   1.00
H2       0.52038    0.50949    0.44941   1.00
H2       0.69875    0.61638    0.58982   1.00
H2       0.44270    0.44757    0.46029   1.00
H2       0.62164    0.61338    0.59614   1.00
H2       0.48511    0.53134    0.46999   1.00
H2       0.62015    0.54677    0.58190   1.00
C4       0.35075    0.18723    0.48188   1.00
C4       0.29727    0.16066    0.49660   1.00
C3       0.40355    0.17040    0.48186   1.00
C3       0.28878    0.11000    0.51097   1.00
C3       0.35236    0.23253    0.46649   1.00
C3       0.24994    0.18501    0.49717   1.00
C2       0.45705    0.23828    0.45153   1.00
C2       0.19117    0.10930    0.52702   1.00
C3       0.45493    0.19480    0.46711   1.00
C3       0.23761    0.08528    0.52580   1.00
C3       0.40535    0.25595    0.45168   1.00
C3       0.19879    0.15879    0.51257   1.00
H1       0.40704    0.14032    0.49269   1.00
H1       0.31903    0.08867    0.51109   1.00
C5       0.30225    0.25359    0.46623   1.00
C5       0.25416    0.23388    0.48255   1.00
H1       0.49138    0.18055    0.46789   1.00
H1       0.23436    0.04895    0.53578   1.00
H1       0.40794    0.28785    0.44042   1.00
H1       0.16450    0.17520    0.51355   1.00
C6       0.30025    0.29561    0.44866   1.00
C6       0.20844    0.26455    0.48466   1.00
H2       0.30668    0.27451    0.43452   1.00
H2       0.20730    0.27758    0.50051   1.00
H2       0.24978    0.28932    0.44667   1.00
H2       0.23043    0.31422    0.47741   1.00
C6       0.35356    0.37351    0.45068   1.00
C6       0.13484    0.21755    0.47606   1.00
H2       0.40256    0.37998    0.45559   1.00
H2       0.11609    0.16500    0.48096   1.00
C6       0.36674    0.41937    0.43153   1.00
C6       0.07905    0.23661    0.48140   1.00
H2       0.33693    0.39387    0.46305   1.00
H2       0.13874    0.21659    0.45956   1.00
C6       0.40088    0.40078    0.41419   1.00
C6       0.06240    0.22857    0.50440   1.00
C6       0.29998    0.41427    0.42355   1.00
C6       0.10075    0.31035    0.47477   1.00
C6       0.41618    0.49475    0.43750   1.00
C6       0.01252    0.18727    0.46988   1.00
H2       0.44762    0.40281    0.41943   1.00
H2       0.04796    0.17732    0.50963   1.00
H2       0.36709    0.34969    0.40838   1.00
H2       0.10591    0.26484    0.51337   1.00
H2       0.41415    0.43601    0.40147   1.00
H2       0.02022    0.23736    0.50776   1.00
H2       0.31037    0.45003    0.41113   1.00
H2       0.05961    0.32145    0.47723   1.00
H2       0.26514    0.36324    0.41784   1.00
H2       0.14473    0.34747    0.48344   1.00
H2       0.27418    0.42573    0.43559   1.00
H2       0.11414    0.31780    0.45871   1.00
H2       0.46454    0.50131    0.44305   1.00
H2       -0.00544   0.13439    0.47419   1.00
H2       0.42733    0.52882    0.42456   1.00
H2       -0.02822   0.19828    0.47323   1.00
H2       0.39432    0.51137    0.44943   1.00
H2       0.02065    0.19157    0.45351   1.00
C4       0.81180    0.16181    0.48166   1.00
C4       0.83782    0.13449    0.49642   1.00
C3       0.83889    0.23327    0.47911   1.00
C3       0.89713    0.17652    0.50816   1.00
C3       0.75654    0.11671    0.46885   1.00
C3       0.80394    0.06248    0.49975   1.00
C2       0.76146    0.21722    0.45114   1.00
C2       0.88855    0.07960    0.52698   1.00
C3       0.81481    0.26026    0.46426   1.00
C3       0.92162    0.15008    0.52306   1.00
C3       0.73375    0.14626    0.45384   1.00
C3       0.83031    0.03762    0.51514   1.00
H1       0.87668    0.26838    0.48808   1.00
H1       0.92515    0.22787    0.50620   1.00
C5       0.72529    0.04426    0.47127   1.00
C5       0.74568    0.01733    0.48781   1.00
H1       0.83668    0.31228    0.46314   1.00
H1       0.96449    0.18313    0.53106   1.00
H1       0.69488    0.11586    0.44435   1.00
H1       0.80734    -0.01321   0.51805   1.00
C6       0.67184    -0.00276   0.45623   1.00
C6       0.70608    -0.05789   0.49295   1.00
H2       0.68872    0.01662    0.44094   1.00
H2       0.69951    -0.06372   0.50934   1.00
H2       0.66884    -0.05214   0.45549   1.00
H2       0.65354    -0.08147   0.48778   1.00
C6       0.59906    -0.01375   0.46076   1.00
C6       0.73930    -0.09888   0.48422   1.00
H2       0.60300    0.03516    0.46444   1.00
H2       0.79434    -0.07030   0.48681   1.00
C6       0.54341    -0.04862   0.44390   1.00
C6       0.71185    -0.17319   0.49223   1.00
H2       0.58035    -0.04419   0.47459   1.00
H2       0.73318    -0.10106   0.46775   1.00
C6       0.56092    -0.00315   0.42473   1.00
C6       0.72844    -0.17385   0.51503   1.00
C6       0.53348    -0.11910   0.43782   1.00
C6       0.63392    -0.21813   0.48897   1.00
C6       0.47452    -0.05978   0.45233   1.00
C6       0.74741    -0.20580   0.48026   1.00
H2       0.56934    0.04741    0.42857   1.00
H2       0.78301    -0.14165   0.51789   1.00
H2       0.60673    0.00335    0.41729   1.00
H2       0.70160    -0.15543   0.52449   1.00
H2       0.51965    -0.02570   0.41365   1.00
H2       0.71335    -0.22535   0.52012   1.00
H2       0.49130    -0.14506   0.42714   1.00
H2       0.61613    -0.27096   0.49327   1.00
H2       0.57910    -0.11373   0.43051   1.00
H2       0.60612    -0.20009   0.49817   1.00
H2       0.52250    -0.15163   0.45111   1.00
H2       0.62069    -0.21739   0.47310   1.00
H2       0.47855    -0.01136   0.45666   1.00
H2       0.80266    -0.17635   0.48223   1.00
H2       0.43403    -0.08366   0.44103   1.00
H2       0.73021    -0.25773   0.48542   1.00
H2       0.45868    -0.09271   0.46567   1.00
H2       0.73647    -0.20806   0.46407   1.00
C4       0.63991    0.84060    0.01531   1.00
C4       0.68972    0.86437    -0.00051   1.00
C3       0.63597    0.88551    0.02968   1.00
C3       0.73429    0.93506    -0.00437   1.00
C3       0.59186    0.76935    0.01707   1.00
C3       0.69586    0.81632    -0.01312   1.00
C2       0.53710    0.79299    0.04668   1.00
C2       0.79272    0.91250    -0.03184   1.00
C3       0.58598    0.86260    0.04483   1.00
C3       0.78448    0.95852    -0.01947   1.00
C3       0.54152    0.74815    0.03265   1.00
C3       0.74788    0.84231    -0.02826   1.00
H1       0.66971    0.93647    0.02979   1.00
H1       0.73151    0.97217    0.00353   1.00
C5       0.59508    0.72136    0.00357   1.00
C5       0.65054    0.74453    -0.01052   1.00
H1       0.58571    0.89761    0.05468   1.00
H1       0.81520    1.01016    -0.02144   1.00
H1       0.50619    0.69797    0.03429   1.00
H1       0.75413    0.80974    -0.03743   1.00
C6       0.53960    0.64715    0.00422   1.00
C6       0.66226    0.69423    -0.02248   1.00
H2       0.49020    0.64421    0.00538   1.00
H2       0.71652    0.71097    -0.02238   1.00
H2       0.53487    0.62180    -0.01019   1.00
H2       0.64088    0.64525    -0.01484   1.00
C6       0.55004    0.60579    0.02153   1.00
C6       0.63322    0.68264    -0.04461   1.00
H2       0.56468    0.63566    0.03553   1.00
H2       0.64632    0.73170    -0.05143   1.00
C6       0.48886    0.53326    0.02656   1.00
C6       0.65532    0.64397    -0.05975   1.00
H2       0.59397    0.60053    0.01747   1.00
H2       0.57762    0.65467    -0.04357   1.00
C6       0.42760    0.53709    0.03558   1.00
C6       0.73262    0.68578    -0.06463   1.00
C6       0.46492    0.48662    0.00759   1.00
C6       0.63794    0.57304    -0.05147   1.00
C6       0.51256    0.49964    0.04272   1.00
C6       0.61595    0.63299    -0.07996   1.00
H2       0.44308    0.57056    0.04882   1.00
H2       0.74676    0.73659    -0.07019   1.00
H2       0.40564    0.55641    0.02455   1.00
H2       0.76350    0.69183    -0.05128   1.00
H2       0.38711    0.48682    0.04034   1.00
H2       0.74660    0.66062    -0.07624   1.00
H2       0.42561    0.43484    0.01155   1.00
H2       0.64905    0.54457    -0.06273   1.00
H2       0.44336    0.50550    -0.00374   1.00
H2       0.66788    0.57799    -0.03798   1.00
H2       0.50744    0.48419    0.00069   1.00
H2       0.58404    0.54307    -0.04752   1.00
H2       0.52937    0.53027    0.05654   1.00
H2       0.62701    0.68169    -0.08657   1.00
H2       0.47135    0.44892    0.04683   1.00
H2       0.63002    0.60650    -0.09110   1.00
H2       0.55494    0.49424    0.03707   1.00
H2       0.56098    0.60255    -0.07758   1.00
C4       0.18724    0.35074    0.01812   1.00
C4       0.16067    0.29726    0.00340   1.00
C3       0.17028    0.40345    0.01817   1.00
C3       0.10991    0.28867    -0.01094   1.00
C3       0.23266    0.35245    0.03348   1.00
C3       0.18514    0.25003    0.00280   1.00
C2       0.23828    0.45703    0.04848   1.00
C2       0.10932    0.19117    -0.02702   1.00
C3       0.19468    0.45483    0.03292   1.00
C3       0.08519    0.23750    -0.02577   1.00
C3       0.25608    0.40543    0.04830   1.00
C3       0.15892    0.19888    -0.01260   1.00
H1       0.14011    0.40688    0.00736   1.00
H1       0.08850    0.31886    -0.01103   1.00
C5       0.25384    0.30242    0.03372   1.00
C5       0.23413    0.25434    0.01739   1.00
H1       0.18034    0.49122    0.03216   1.00
H1       0.04877    0.23418    -0.03573   1.00
H1       0.28806    0.40807    0.05954   1.00
H1       0.17541    0.16465    -0.01360   1.00
C6       0.29600    0.30052    0.05126   1.00
C6       0.26491    0.20873    0.01525   1.00
H2       0.27495    0.30690    0.06541   1.00
H2       0.27788    0.20762    -0.00061   1.00
H2       0.28983    0.25008    0.05324   1.00
H2       0.31463    0.23081    0.02248   1.00
C6       0.37387    0.35393    0.04921   1.00
C6       0.21807    0.13511    0.02385   1.00
H2       0.38021    0.40289    0.04431   1.00
H2       0.16548    0.11627    0.01899   1.00
C6       0.41984    0.36718    0.06834   1.00
C6       0.23723    0.07942    0.01849   1.00
H2       0.39422    0.33735    0.03682   1.00
H2       0.21718    0.13901    0.04035   1.00
C6       0.40125    0.40125    0.08570   1.00
C6       0.22909    0.06277    -0.00452   1.00
C6       0.41492    0.30049    0.07629   1.00
C6       0.31103    0.10125    0.02508   1.00
C6       0.49517    0.41673    0.06233   1.00
C6       0.18803    0.01286    0.03001   1.00
H2       0.40317    0.44795    0.08047   1.00
H2       0.17780    0.04824    -0.00972   1.00
H2       0.35021    0.36740    0.09153   1.00
H2       0.26527    0.10631    -0.01349   1.00
H2       0.43656    0.41458    0.09840   1.00
H2       0.23796    0.02066    -0.00789   1.00
H2       0.45075    0.31094    0.08870   1.00
H2       0.32221    0.06017    0.02260   1.00
H2       0.36393    0.26558    0.08203   1.00
H2       0.34806    0.14525    0.01640   1.00
H2       0.42638    0.27473    0.06424   1.00
H2       0.31854    0.11464    0.04114   1.00
H2       0.50161    0.46506    0.05679   1.00
H2       0.13512    -0.00520   0.02574   1.00
H2       0.52931    0.42794    0.07525   1.00
H2       0.19912    -0.02782   0.02664   1.00
H2       0.51179    0.39492    0.05039   1.00
H2       0.19240    0.02098    0.04639   1.00
C4       0.16181    0.81180    0.01834   1.00
C4       0.13449    0.83782    0.00358   1.00
C3       0.23327    0.83888    0.02089   1.00
C3       0.17652    0.89712    -0.00816   1.00
C3       0.11671    0.75654    0.03115   1.00
C3       0.06248    0.80394    0.00025   1.00
C2       0.21722    0.76146    0.04886   1.00
C2       0.07960    0.88855    -0.02698   1.00
C3       0.26026    0.81480    0.03574   1.00
C3       0.15008    0.92162    -0.02306   1.00
C3       0.14626    0.73375    0.04616   1.00
C3       0.03762    0.83031    -0.01514   1.00
H1       0.26838    0.87667    0.01192   1.00
H1       0.22787    0.92515    -0.00620   1.00
C5       0.04426    0.72529    0.02873   1.00
C5       0.01733    0.74568    0.01219   1.00
H1       0.31228    0.83668    0.03686   1.00
H1       0.18313    0.96449    -0.03106   1.00
H1       0.11586    0.69488    0.05565   1.00
H1       -0.01321   0.80735    -0.01805   1.00
C6       -0.00276   0.67185    0.04377   1.00
C6       -0.05789   0.70608    0.00705   1.00
H2       0.01663    0.68873    0.05906   1.00
H2       -0.06372   0.69952    -0.00934   1.00
H2       -0.05214   0.66885    0.04451   1.00
H2       -0.08147   0.65355    0.01222   1.00
C6       -0.01376   0.59906    0.03924   1.00
C6       -0.09887   0.73930    0.01579   1.00
H2       0.03516    0.60300    0.03556   1.00
H2       -0.07029   0.79435    0.01320   1.00
C6       -0.04862   0.54341    0.05610   1.00
C6       -0.17319   0.71185    0.00777   1.00
H2       -0.04420   0.58035    0.02542   1.00
H2       -0.10105   0.73318    0.03225   1.00
C6       -0.00315   0.56092    0.07527   1.00
C6       -0.17385   0.72845    -0.01503   1.00
C6       -0.11910   0.53349    0.06219   1.00
C6       -0.21813   0.63393    0.01103   1.00
C6       -0.05978   0.47452    0.04768   1.00
C6       -0.20580   0.74742    0.01974   1.00
H2       0.04741    0.56935    0.07143   1.00
H2       -0.14165   0.78301    -0.01789   1.00
H2       0.00335    0.60673    0.08271   1.00
H2       -0.15544   0.70160    -0.02449   1.00
H2       -0.02570   0.51966    0.08636   1.00
H2       -0.22535   0.71336    -0.02012   1.00
H2       -0.14506   0.49131    0.07286   1.00
H2       -0.27096   0.61614    0.00674   1.00
H2       -0.11373   0.57910    0.06949   1.00
H2       -0.20010   0.60612    0.00183   1.00
H2       -0.15163   0.52251    0.04889   1.00
H2       -0.21739   0.62070    0.02690   1.00
H2       -0.01136   0.47855    0.04334   1.00
H2       -0.17634   0.80267    0.01777   1.00
H2       -0.08366   0.43403    0.05897   1.00
H2       -0.25772   0.73022    0.01458   1.00
H2       -0.09271   0.45868    0.03433   1.00
H2       -0.20806   0.73648    0.03593   1.00
C4       0.15957    0.34944    0.51851   1.00
C4       0.13585    0.29702    0.50348   1.00
C3       0.11449    0.36397    0.52969   1.00
C3       0.06518    0.25089    0.50009   1.00
C3       0.23095    0.38942    0.52269   1.00
C3       0.18392    0.28963    0.49125   1.00
C2       0.20716    0.45318    0.54960   1.00
C2       0.08773    0.19313    0.47241   1.00
C3       0.13740    0.41400    0.54484   1.00
C3       0.04172    0.20071    0.48497   1.00
C3       0.25216    0.43963    0.53831   1.00
C3       0.15792    0.23812    0.47594   1.00
H1       0.06339    0.33922    0.52711   1.00
H1       0.02810    0.25158    0.50861   1.00
C5       0.27906    0.37909    0.51133   1.00
C5       0.25574    0.33269    0.49452   1.00
H1       0.10227    0.42182    0.55242   1.00
H1       -0.00991   0.16921    0.48324   1.00
H1       0.30243    0.46875    0.54182   1.00
H1       0.19049    0.23160    0.46685   1.00
C6       0.35356    0.41663    0.51737   1.00
C6       0.30591    0.32918    0.48009   1.00
H2       0.35732    0.41513    0.53382   1.00
H2       0.28833    0.32690    0.46457   1.00
H2       0.37943    0.38952    0.51253   1.00
H2       0.35446    0.37660    0.47991   1.00
C6       0.39353    0.49147    0.50906   1.00
C6       0.31895    0.26881    0.48482   1.00
H2       0.36303    0.51611    0.51126   1.00
H2       0.27042    0.22260    0.48795   1.00
C6       0.46628    0.53981    0.51794   1.00
C6       0.35755    0.25086    0.46844   1.00
H2       0.39813    0.48871    0.49264   1.00
H2       0.34763    0.28065    0.49900   1.00
C6       0.46319    0.55533    0.54071   1.00
C6       0.31495    0.22286    0.44875   1.00
C6       0.51380    0.50947    0.51528   1.00
C6       0.42775    0.31332    0.46317   1.00
C6       0.49839    0.60861    0.50631   1.00
C6       0.37008    0.19424    0.47706   1.00
H2       0.42913    0.57580    0.54314   1.00
H2       0.26461    0.17936    0.45200   1.00
H2       0.44496    0.50969    0.54999   1.00
H2       0.30776    0.26156    0.44119   1.00
H2       0.51351    0.59271    0.54640   1.00
H2       0.34014    0.20609    0.43798   1.00
H2       0.56563    0.54560    0.52019   1.00
H2       0.45628    0.29912    0.45285   1.00
H2       0.49601    0.46329    0.52431   1.00
H2       0.42167    0.35299    0.45575   1.00
H2       0.51574    0.49674    0.49943   1.00
H2       0.45824    0.33490    0.47683   1.00
H2       0.46711    0.63260    0.50788   1.00
H2       0.32195    0.14857    0.48084   1.00
H2       0.54921    0.64436    0.51207   1.00
H2       0.39658    0.17959    0.46609   1.00
H2       0.50322    0.60120    0.49017   1.00
H2       0.40114    0.21145    0.49079   1.00
C4       0.64979    0.81213    0.51828   1.00
C4       0.70156    0.84071    0.50306   1.00
C3       0.64923    0.76766    0.53367   1.00
C3       0.76007    0.83267    0.50340   1.00
C3       0.59608    0.82798    0.51834   1.00
C3       0.69548    0.87905    0.48677   1.00
C2       0.54701    0.75696    0.54967   1.00
C2       0.80461    0.89565    0.47174   1.00
C3       0.59966    0.74112    0.54896   1.00
C3       0.80991    0.85895    0.48819   1.00
C3       0.54679    0.80021    0.53424   1.00
C3       0.74717    0.90465    0.47152   1.00
H1       0.68443    0.75233    0.53423   1.00
H1       0.76901    0.80799    0.51482   1.00
C5       0.59233    0.87015    0.50274   1.00
C5       0.63919    0.89129    0.48607   1.00
H1       0.60225    0.70955    0.55966   1.00
H1       0.85076    0.85116    0.48927   1.00
H1       0.50810    0.81069    0.53487   1.00
H1       0.74438    0.93175    0.45963   1.00
C6       0.53956    0.89240    0.50420   1.00
C6       0.62955    0.92560    0.46767   1.00
H2       0.53791    0.90788    0.51975   1.00
H2       0.63812    0.90385    0.45400   1.00
H2       0.55525    0.93951    0.49595   1.00
H2       0.57661    0.91225    0.46581   1.00
C6       0.46723    0.83683    0.49659   1.00
C6       0.67535    1.00523    0.46808   1.00
H2       0.45519    0.78698    0.50255   1.00
H2       0.72695    1.01921    0.47285   1.00
C6       0.40570    0.84772    0.50151   1.00
C6       0.68114    1.04485    0.44803   1.00
H2       0.47004    0.83268    0.48015   1.00
H2       0.65588    1.02446    0.48000   1.00
C6       0.39118    0.84328    0.52462   1.00
C6       0.71853    1.02856    0.43113   1.00
C6       0.41771    0.91706    0.49337   1.00
C6       0.61020    1.02891    0.44017   1.00
C6       0.34095    0.79031    0.49102   1.00
C6       0.72354    1.12252    0.45244   1.00
H2       0.38357    0.79532    0.53089   1.00
H2       0.76839    1.03823    0.43632   1.00
H2       0.43309    0.88484    0.53282   1.00
H2       0.68934    0.97547    0.42638   1.00
H2       0.34541    0.84619    0.52777   1.00
H2       0.72650    1.05991    0.41771   1.00
H2       0.37262    0.92204    0.49558   1.00
H2       0.61506    1.06039    0.42704   1.00
H2       0.45997    0.95940    0.50126   1.00
H2       0.57989    0.97575    0.43552   1.00
H2       0.42946    0.92210    0.47720   1.00
H2       0.58221    1.03859    0.45193   1.00
H2       0.32974    0.74014    0.49641   1.00
H2       0.77451    1.13665    0.45785   1.00
H2       0.29638    0.79546    0.49413   1.00
H2       0.72941    1.15244    0.43883   1.00
H2       0.34752    0.79163    0.47460   1.00
H2       0.69900    1.13747    0.46399   1.00
C4       0.18796    0.83781    0.51830   1.00
C4       0.15936    0.86102    0.50308   1.00
C3       0.23335    0.88196    0.53348   1.00
C3       0.16837    0.92796    0.50325   1.00
C3       0.17117    0.76797    0.51855   1.00
C3       0.12002    0.81622    0.48699   1.00
C2       0.24319    0.79021    0.54967   1.00
C2       0.10438    0.90912    0.47178   1.00
C3       0.25992    0.85894    0.54876   1.00
C3       0.14206    0.95151    0.48805   1.00
C3       0.19902    0.74648    0.53444   1.00
C3       0.09443    0.84231    0.47174   1.00
H1       0.24934    0.93265    0.53389   1.00
H1       0.19381    0.96190    0.51454   1.00
C5       0.12803    0.72174    0.50316   1.00
C5       0.10680    0.74734    0.48647   1.00
H1       0.29217    0.89328    0.55932   1.00
H1       0.15057    1.00043    0.48899   1.00
H1       0.18789    0.69712    0.53521   1.00
H1       0.06662    0.81215    0.45998   1.00
C6       0.10487    0.64656    0.50485   1.00
C6       0.07137    0.70287    0.46825   1.00
H2       0.08985    0.63014    0.52046   1.00
H2       0.09289    0.73255    0.45447   1.00
H2       0.05732    0.61531    0.49677   1.00
H2       0.08394    0.66270    0.46646   1.00
C6       0.15946    0.62853    0.49715   1.00
C6       -0.00813   0.67002    0.46892   1.00
H2       0.20972    0.66608    0.50291   1.00
H2       -0.02125   0.70832    0.47364   1.00
C6       0.14774    0.55592    0.50226   1.00
C6       -0.04873   0.63577    0.44904   1.00
H2       0.16304    0.63484    0.48068   1.00
H2       -0.02735   0.63178    0.48097   1.00
C6       0.15289    0.54660    0.52538   1.00
C6       -0.03241   0.68894    0.43198   1.00
C6       0.07775    0.49891    0.49441   1.00
C6       -0.03406   0.57980    0.44128   1.00
C6       0.20419    0.54725    0.49167   1.00
C6       -0.12617   0.60159    0.45371   1.00
H2       0.20133    0.58676    0.53145   1.00
H2       -0.04119   0.72979    0.43710   1.00
H2       0.11197    0.54790    0.53367   1.00
H2       0.02045    0.71203    0.42706   1.00
H2       0.14937    0.49771    0.52866   1.00
H2       -0.06439   0.66536    0.41869   1.00
H2       0.07213    0.44863    0.49675   1.00
H2       -0.06621   0.55296    0.42828   1.00
H2       0.03604    0.49978    0.50240   1.00
H2       0.01886    0.60184    0.43645   1.00
H2       0.07223    0.50513    0.47824   1.00
H2       -0.04378   0.54246    0.45315   1.00
H2       0.25477    0.58593    0.49685   1.00
H2       -0.13942   0.63913    0.45907   1.00
H2       0.19844    0.49735    0.49490   1.00
H2       -0.15675   0.57729    0.44022   1.00
H2       0.20232    0.55191    0.47523   1.00
H2       -0.14116   0.56248    0.46538   1.00
C4       0.35994    0.15907    0.98465   1.00
C4       0.30830    0.13127    0.99993   1.00
C3       0.41516    0.22752    0.98536   1.00
C3       0.31209    0.16747    1.01801   1.00
C3       0.35700    0.11759    0.96789   1.00
C3       0.25034    0.06474    0.99729   1.00
C2       0.46621    0.21432    0.95429   1.00
C2       0.20229    0.07648    1.03037   1.00
C3       0.46691    0.25432    0.97072   1.00
C3       0.26062    0.14117    1.03274   1.00
C3       0.41092    0.14670    0.95336   1.00
C3       0.19886    0.03996    1.01260   1.00
H1       0.41948    0.26069    0.99644   1.00
H1       0.35272    0.21403    1.02125   1.00
C5       0.30113    0.04920    0.96590   1.00
C5       0.24506    0.02469    0.97981   1.00
H1       0.50549    0.30400    0.97215   1.00
H1       0.26627    0.16994    1.04541   1.00
H1       0.41087    0.11867    0.94131   1.00
H1       0.15668    -0.00691   1.01120   1.00
C6       0.30241    0.00360    0.94931   1.00
C6       0.18022    -0.04243   0.97615   1.00
H2       0.35321    0.00962    0.94856   1.00
H2       0.13647    -0.03595   0.97914   1.00
H2       0.27142    -0.05004   0.95320   1.00
H2       0.17328    -0.05608   0.96017   1.00
C6       0.27897    0.01621    0.92817   1.00
C6       0.17664    -0.10298   0.98868   1.00
H2       0.30264    0.07102    0.92544   1.00
H2       0.19326    -0.08633   1.00424   1.00
C6       0.29248    -0.01664   0.90912   1.00
C6       0.10636    -0.17080   0.98964   1.00
H2       0.22428    -0.00233   0.92906   1.00
H2       0.21437    -0.11451   0.98238   1.00
C6       0.36985    0.01514    0.90483   1.00
C6       0.05229    -0.16127   1.00135   1.00
C6       0.25993    -0.09487   0.91147   1.00
C6       0.07890    -0.19901   0.96818   1.00
C6       0.25984    -0.00278   0.89033   1.00
C6       0.11624    -0.22503   1.00118   1.00
H2       0.39457    0.07053    0.90342   1.00
H2       0.07060    -0.14034   1.01647   1.00
H2       0.39538    0.00370    0.91691   1.00
H2       0.03972    -0.12685   0.99340   1.00
H2       0.37864    -0.00465   0.89076   1.00
H2       0.00500    -0.20975   1.00316   1.00
H2       0.26542    -0.11786   0.89756   1.00
H2       0.03245    -0.24867   0.96903   1.00
H2       0.28437    -0.10741   0.92364   1.00
H2       0.06663    -0.16488   0.95988   1.00
H2       0.20569    -0.11836   0.91492   1.00
H2       0.11660    -0.20485   0.95945   1.00
H2       0.28162    0.05191    0.88786   1.00
H2       0.13495    -0.20790   1.01655   1.00
H2       0.26832    -0.02440   0.87659   1.00
H2       0.06834    -0.27331   1.00237   1.00
H2       0.20488    -0.02522   0.89227   1.00
H2       0.15291    -0.23504   0.99342   1.00
C4       0.81291    0.64909    0.98193   1.00
C4       0.84130    0.70048    0.99726   1.00
C3       0.77865    0.65499    0.96459   1.00
C3       0.84377    0.76434    0.99530   1.00
C3       0.81841    0.58910    0.98377   1.00
C3       0.86859    0.68847    1.01534   1.00
C2       0.75841    0.54675    0.95040   1.00
C2       0.89565    0.80313    1.02870   1.00
C3       0.75250    0.60563    0.94924   1.00
C3       0.86978    0.81404    1.01055   1.00
C3       0.79142    0.54020    0.96775   1.00
C3       0.89427    0.74025    1.03057   1.00
H1       0.77083    0.69507    0.96255   1.00
H1       0.82739    0.77742    0.98262   1.00
C5       0.84981    0.57895    1.00130   1.00
C5       0.87013    0.62633    1.01782   1.00
H1       0.72859    0.61303    0.93708   1.00
H1       0.86986    0.85894    1.00824   1.00
H1       0.79477    0.49712    0.96844   1.00
H1       0.91366    0.73340    1.04369   1.00
C6       0.86177    0.51890    1.00203   1.00
C6       0.89239    0.61123    1.03788   1.00
H2       0.88144    0.51412    0.98741   1.00
H2       0.86894    0.62434    1.05020   1.00
H2       0.90363    0.52850    1.01211   1.00
H2       0.87097    0.55677    1.04021   1.00
C6       0.79690    0.45062    1.00847   1.00
C6       0.97182    0.64755    1.04029   1.00
H2       0.75230    0.44544    1.00044   1.00
H2       0.99472    0.70037    1.03512   1.00
C6       0.79853    0.38288    1.00542   1.00
C6       1.00077    0.64818    1.06190   1.00
H2       0.78730    0.45489    1.02449   1.00
H2       0.99055    0.62323    1.02981   1.00
C6       0.80103    0.36722    0.98263   1.00
C6       0.98572    0.69138    1.07707   1.00
C6       0.85987    0.38501    1.01652   1.00
C6       0.97175    0.57509    1.07044   1.00
C6       0.73213    0.32311    1.01445   1.00
C6       1.07942    0.68104    1.06032   1.00
H2       0.75898    0.36647    0.97430   1.00
H2       1.00460    0.74300    1.07133   1.00
H2       0.84852    0.40516    0.97559   1.00
H2       0.93126    0.66876    1.07987   1.00
H2       0.79737    0.31767    0.98062   1.00
H2       1.01011    0.69541    1.09168   1.00
H2       0.85781    0.33590    1.01552   1.00
H2       0.99587    0.57577    1.08484   1.00
H2       0.90798    0.42320    1.00982   1.00
H2       0.91708    0.55129    1.07316   1.00
H2       0.86011    0.39737    1.03252   1.00
H2       0.98041    0.54319    1.05984   1.00
H2       0.68715    0.31889    1.00697   1.00
H2       1.10259    0.73313    1.05456   1.00
H2       0.73067    0.27449    1.01256   1.00
H2       1.10211    0.68305    1.07510   1.00
H2       0.72809    0.33052    1.03064   1.00
H2       1.09332    0.65199    1.05012   1.00
C4       0.83785    0.18798    0.98170   1.00
C4       0.86106    0.15938    0.99691   1.00
C3       0.88205    0.23360    0.96656   1.00
C3       0.92809    0.16863    0.99678   1.00
C3       0.76794    0.17096    0.98139   1.00
C3       0.81617    0.11979    1.01296   1.00
C2       0.79025    0.24323    0.95033   1.00
C2       0.90916    0.10438    1.02821   1.00
C3       0.85904    0.26017    0.95129   1.00
C3       0.95164    0.14231    1.01199   1.00
C3       0.74646    0.19882    0.96551   1.00
C3       0.84226    0.09420    1.02821   1.00
H1       0.93278    0.24976    0.96620   1.00
H1       0.96211    0.19426    0.98553   1.00
C5       0.72164    0.12758    0.99673   1.00
C5       0.74720    0.10633    1.01343   1.00
H1       0.89343    0.29260    0.94077   1.00
H1       1.00063    0.15100    1.01107   1.00
H1       0.69705    0.18754    0.96470   1.00
H1       0.81204    0.06621    1.03993   1.00
C6       0.64642    0.10419    0.99499   1.00
C6       0.70261    0.07062    1.03160   1.00
H2       0.63018    0.08929    0.97936   1.00
H2       0.73213    0.09208    1.04541   1.00
H2       0.61521    0.05654    1.00302   1.00
H2       0.66230    0.08300    1.03338   1.00
C6       0.62808    0.15854    1.00271   1.00
C6       0.67000    -0.00885   1.03087   1.00
H2       0.66556    0.20890    0.99700   1.00
H2       0.70848    -0.02175   1.02616   1.00
C6       0.55542    0.14661    0.99755   1.00
C6       0.63565    -0.04969   1.05070   1.00
H2       0.63422    0.16198    1.01918   1.00
H2       0.63189    -0.02806   1.01878   1.00
C6       0.54629    0.15194    0.97443   1.00
C6       0.68870    -0.03336   1.06781   1.00
C6       0.49849    0.07646    1.00533   1.00
C6       0.57945    -0.03534   1.05845   1.00
C6       0.54641    0.20282    1.00817   1.00
C6       0.60175    -0.12707   1.04597   1.00
H2       0.58639    0.20050    0.96840   1.00
H2       0.72971    -0.04192   1.06270   1.00
H2       0.54783    0.11118    0.96611   1.00
H2       0.71158    0.01943    1.07277   1.00
H2       0.49735    0.14827    0.97112   1.00
H2       0.66507    -0.06550   1.08107   1.00
H2       0.44816    0.07069    1.00295   1.00
H2       0.55255    -0.06766   1.07141   1.00
H2       0.49960    0.03491    0.99732   1.00
H2       0.60128    0.01752    1.06331   1.00
H2       0.50458    0.07082    1.02150   1.00
H2       0.54218    -0.04507   1.04655   1.00
H2       0.58503    0.25350    1.00304   1.00
H2       0.63947    -0.14010   1.04063   1.00
H2       0.49647    0.19692    1.00490   1.00
H2       0.57739    -0.15781   1.05943   1.00
H2       0.55093    0.20081    1.02460   1.00
H2       0.56274    -0.14207   1.03427   1.00
C4       0.50326    0.98263    0.81519   1.00
C4       0.53019    1.03611    0.82991   1.00
C3       0.43343    0.93034    0.81502   1.00
C3       0.48796    1.04514    0.84413   1.00
C3       0.54712    0.98050    0.79996   1.00
C3       0.60198    1.08287    0.83065   1.00
C2       0.44800    0.87637    0.78483   1.00
C2       0.58495    1.14218    0.86034   1.00
C3       0.40644    0.87898    0.80026   1.00
C3       0.51440    1.09630    0.85895   1.00
C3       0.51755    0.92755    0.78514   1.00
C3       0.62691    1.13403    0.84606   1.00
H1       0.39969    0.92722    0.82574   1.00
H1       0.43632    1.01531    0.84411   1.00
C5       0.61847    1.03008    0.79986   1.00
C5       0.64676    1.07811    0.81620   1.00
H1       0.35559    0.84291    0.80093   1.00
H1       0.48126    1.09995    0.86881   1.00
H1       0.54699    0.92461    0.77399   1.00
H1       0.67768    1.16793    0.84716   1.00
C6       0.66276    1.03157    0.78244   1.00
C6       0.72317    1.12321    0.81850   1.00
H2       0.63575    1.02543    0.76822   1.00
H2       0.73680    1.12418    0.83439   1.00
H2       0.70734    1.08182    0.78053   1.00
H2       0.75064    1.10076    0.81138   1.00
C6       0.68653    0.97767    0.78464   1.00
C6       0.75073    1.19692    0.80987   1.00
H2       0.64353    0.92888    0.78948   1.00
H2       0.71721    1.21617    0.81461   1.00
C6       0.71943    0.96404    0.76563   1.00
C6       0.82563    1.25216    0.81537   1.00
H2       0.72313    0.99396    0.79711   1.00
H2       0.74633    1.19305    0.79336   1.00
C6       0.66713    0.93031    0.74817   1.00
C6       0.83370    1.26880    0.83838   1.00
C6       0.78174    1.03046    0.75776   1.00
C6       0.87730    1.22972    0.80896   1.00
C6       0.74446    0.91400    0.77178   1.00
C6       0.84383    1.31887    0.80380   1.00
H2       0.62198    0.88382    0.75333   1.00
H2       0.79712    1.28376    0.84345   1.00
H2       0.65049    0.96450    0.74224   1.00
H2       0.82573    1.22512    0.84739   1.00
H2       0.68918    0.91671    0.73554   1.00
H2       0.88475    1.31063    0.84184   1.00
H2       0.80720    1.01971    0.74544   1.00
H2       0.92964    1.27049    0.81153   1.00
H2       0.76622    1.06569    0.75193   1.00
H2       0.86971    1.18557    0.81768   1.00
H2       0.81873    1.05598    0.76987   1.00
H2       0.87171    1.21632    0.79291   1.00
H2       0.70218    0.86585    0.77726   1.00
H2       0.80921    1.33735    0.80795   1.00
H2       0.76749    0.90252    0.75894   1.00
H2       0.89565    1.35924    0.80726   1.00
H2       0.78262    0.93554    0.78380   1.00
H2       0.84042    1.31075    0.78743   1.00
C4       0.01668    0.52152    0.81499   1.00
C4       -0.03666   0.49551    0.82975   1.00
C3       0.06106    0.49445    0.81244   1.00
C3       -0.05392   0.43621    0.84150   1.00
C3       0.02684    0.57678    0.80217   1.00
C3       -0.07480   0.52938    0.83308   1.00
C2       0.12243    0.57186    0.78447   1.00
C2       -0.14228   0.44478    0.86031   1.00
C3       0.11213    0.51853    0.79759   1.00
C3       -0.10486   0.41172    0.85639   1.00
C3       0.07918    0.59957    0.78717   1.00
C3       -0.12602   0.50301    0.84847   1.00
H1       0.05839    0.45667    0.82141   1.00
H1       -0.03059   0.40819    0.83953   1.00
C5       -0.01437   0.60803    0.80459   1.00
C5       -0.06170   0.58763    0.82114   1.00
H1       0.14228    0.49666    0.79648   1.00
H1       -0.11468   0.36885    0.86440   1.00
H1       0.08764    0.63844    0.77768   1.00
H1       -0.15390   0.52597    0.85138   1.00
C6       -0.00796   0.66146    0.78955   1.00
C6       -0.09732   0.62723    0.82628   1.00
H2       -0.00545   0.64457    0.77426   1.00
H2       -0.09659   0.63380    0.84266   1.00
H2       -0.05434   0.66446    0.78881   1.00
H2       -0.06838   0.67976    0.82110   1.00
C6       0.05383    0.73425    0.79408   1.00
C6       -0.17153   0.59400    0.81754   1.00
H2       0.09881    0.73032    0.79777   1.00
H2       -0.19799   0.53895    0.82013   1.00
C6       0.07461    0.78989    0.77722   1.00
C6       -0.21840   0.62144    0.82555   1.00
H2       0.04209    0.75296    0.80791   1.00
H2       -0.16759   0.60011    0.80107   1.00
C6       0.10257    0.77238    0.75805   1.00
C6       -0.23565   0.60485    0.84835   1.00
C6       0.01405    0.79981    0.77113   1.00
C6       -0.18542   0.69937    0.82229   1.00
C6       0.13233    0.85879    0.78564   1.00
C6       -0.28658   0.58586    0.81358   1.00
H2       0.14471    0.76397    0.76189   1.00
H2       -0.25802   0.55029    0.85122   1.00
H2       0.06327    0.72657    0.75061   1.00
H2       -0.19040   0.63171    0.85781   1.00
H2       0.12129    0.81365    0.74697   1.00
H2       -0.27206   0.61994    0.85344   1.00
H2       0.03026    0.84198    0.76046   1.00
H2       -0.22046   0.71715    0.82658   1.00
H2       -0.02619   0.75419    0.76383   1.00
H2       -0.13959   0.72718    0.83149   1.00
H2       -0.00751   0.81079    0.78443   1.00
H2       -0.17146   0.71259    0.80642   1.00
H2       0.17672    0.85477    0.78998   1.00
H2       -0.31237   0.53061    0.81555   1.00
H2       0.14894    0.89928    0.77435   1.00
H2       -0.32130   0.60306    0.81874   1.00
H2       0.11524    0.87463    0.79899   1.00
H2       -0.27790   0.59680    0.79739   1.00
C4       0.47850    0.49519    0.81499   1.00
C4       0.50453    0.46787    0.82976   1.00
C3       0.50535    0.56663    0.81251   1.00
C3       0.56365    0.50994    0.84157   1.00
C3       0.42346    0.45008    0.80211   1.00
C3       0.47087    0.39583    0.83302   1.00
C2       0.42815    0.55059    0.78448   1.00
C2       0.55528    0.41298    0.86031   1.00
C3       0.48126    0.59362    0.79767   1.00
C3       0.58815    0.48350    0.85646   1.00
C3       0.40066    0.47964    0.78711   1.00
C3       0.49723    0.37098    0.84840   1.00
H1       0.54296    0.60173    0.82153   1.00
H1       0.59152    0.56132    0.83965   1.00
C5       0.39244    0.37763    0.80446   1.00
C5       0.41281    0.35066    0.82100   1.00
H1       0.50297    0.64563    0.79660   1.00
H1       0.63087    0.51657    0.86451   1.00
H1       0.36194    0.44924    0.77758   1.00
H1       0.47441    0.32012    0.85126   1.00
C6       0.33926    0.33065    0.78936   1.00
C6       0.37340    0.27538    0.82607   1.00
H2       0.35627    0.35024    0.77409   1.00
H2       0.36666    0.26934    0.84245   1.00
H2       0.33648    0.28137    0.78858   1.00
H2       0.32092    0.25167    0.82085   1.00
C6       0.26631    0.31930    0.79383   1.00
C6       0.40698    0.23473    0.81732   1.00
H2       0.27000    0.36808    0.79755   1.00
H2       0.46199    0.26347    0.81997   1.00
C6       0.21088    0.28446    0.77691   1.00
C6       0.37971    0.16037    0.82527   1.00
H2       0.24754    0.28868    0.80763   1.00
H2       0.40104    0.23272    0.80085   1.00
C6       0.22844    0.33012    0.75778   1.00
C6       0.39609    0.15953    0.84808   1.00
C6       0.20132    0.21416    0.77077   1.00
C6       0.30185    0.11522    0.82193   1.00
C6       0.14180    0.27291    0.78528   1.00
C6       0.41564    0.12813    0.81330   1.00
H2       0.23662    0.38056    0.76166   1.00
H2       0.45060    0.19186    0.85100   1.00
H2       0.27441    0.33690    0.75038   1.00
H2       0.36900    0.17767    0.85753   1.00
H2       0.18731    0.30757    0.74666   1.00
H2       0.38114    0.10802    0.85313   1.00
H2       0.15929    0.18819    0.76006   1.00
H2       0.28421    0.06238    0.82617   1.00
H2       0.24710    0.21981    0.76350   1.00
H2       0.27380    0.13298    0.83112   1.00
H2       0.19032    0.18150    0.78404   1.00
H2       0.28877    0.11608    0.80605   1.00
H2       0.14557    0.32119    0.78966   1.00
H2       0.47086    0.15775    0.81533   1.00
H2       0.10145    0.24904    0.77394   1.00
H2       0.39858    0.07619    0.81842   1.00
H2       0.12592    0.23984    0.79860   1.00
H2       0.40487    0.12601    0.79710   1.00
C4       0.30569    0.16774    0.34839   1.00
C4       0.35655    0.19065    0.33289   1.00
C3       0.26654    0.19999    0.35221   1.00
C3       0.36683    0.24263    0.31878   1.00
C3       0.29289    0.11053    0.36069   1.00
C3       0.39915    0.16094    0.33118   1.00
C2       0.20052    0.11941    0.37906   1.00
C2       0.46159    0.23937    0.30217   1.00
C3       0.21530    0.17645    0.36700   1.00
C3       0.41792    0.26657    0.30395   1.00
C3       0.24000    0.08793    0.37552   1.00
C3       0.45084    0.18703    0.31594   1.00
H1       0.27424    0.24220    0.34454   1.00
H1       0.33713    0.26458    0.31863   1.00
C5       0.33261    0.07775    0.35812   1.00
C5       0.38935    0.10646    0.34440   1.00
H1       0.18869    0.20178    0.36896   1.00
H1       0.42289    0.30436    0.29428   1.00
H1       0.22907    0.04714    0.38446   1.00
H1       0.48244    0.16753    0.31434   1.00
C6       0.31372    0.01297    0.36973   1.00
C6       0.43934    0.08052    0.34386   1.00
H2       0.25857    -0.02033   0.36925   1.00
H2       0.49104    0.12387    0.34312   1.00
H2       0.33123    -0.01790   0.36202   1.00
H2       0.44039    0.05724    0.35818   1.00
C6       0.34132    0.02640    0.39204   1.00
C6       0.42497    0.02851    0.32625   1.00
H2       0.33258    0.06520    0.39900   1.00
H2       0.41399    0.04722    0.31228   1.00
C6       0.31259    -0.03612   0.40679   1.00
C6       0.48147    0.01001    0.32139   1.00
H2       0.39669    0.04924    0.39135   1.00
H2       0.37789    -0.01854   0.32990   1.00
C6       0.23568    -0.06504   0.41121   1.00
C6       0.54699    0.07218    0.31292   1.00
C6       0.32346    -0.09379   0.39831   1.00
C6       0.49997    -0.01798   0.34032   1.00
C6       0.35126    -0.01220   0.42728   1.00
C6       0.45394    -0.04640   0.30486   1.00
H2       0.22614    -0.02527   0.41691   1.00
H2       0.53546    0.09383    0.29972   1.00
H2       0.20488    -0.08666   0.39763   1.00
H2       0.57145    0.11229    0.32424   1.00
H2       0.21727    -0.10546   0.42257   1.00
H2       0.58422    0.05765    0.30826   1.00
H2       0.30773    -0.13498   0.40932   1.00
H2       0.53574    -0.03526   0.33645   1.00
H2       0.29353    -0.11568   0.38458   1.00
H2       0.52394    0.02128    0.35193   1.00
H2       0.37704    -0.07444   0.39467   1.00
H2       0.45448    -0.06093   0.34685   1.00
H2       0.34464    0.02814    0.43404   1.00
H2       0.44075    -0.02894   0.29105   1.00
H2       0.33264    -0.05409   0.43816   1.00
H2       0.49184    -0.06077   0.30085   1.00
H2       0.40579    0.00753    0.42522   1.00
H2       0.40836    -0.09224   0.31011   1.00
C4       0.86767    0.69314    0.34872   1.00
C4       0.84182    0.64337    0.33289   1.00
C3       0.91283    0.69421    0.36395   1.00
C3       0.86480    0.59579    0.32994   1.00
C3       0.84808    0.74412    0.34960   1.00
C3       0.79110    0.64040    0.31933   1.00
C2       0.92263    0.79577    0.38015   1.00
C2       0.78718    0.54054    0.30151   1.00
C3       0.93980    0.74410    0.37914   1.00
C3       0.83816    0.54568    0.31481   1.00
C3       0.87699    0.79424    0.36525   1.00
C3       0.76501    0.58835    0.30419   1.00
H1       0.92728    0.65838    0.36470   1.00
H1       0.90226    0.59619    0.33855   1.00
C5       0.80054    0.74395    0.33519   1.00
C5       0.76803    0.68876    0.32102   1.00
H1       0.97234    0.74221    0.38964   1.00
H1       0.85670    0.51270    0.31352   1.00
H1       0.86465    0.83158    0.36629   1.00
H1       0.72858    0.58431    0.29436   1.00
C6       0.78591    0.80228    0.33497   1.00
C6       0.70928    0.68053    0.30800   1.00
H2       0.83375    0.85024    0.33655   1.00
H2       0.66958    0.62701    0.30789   1.00
H2       0.76856    0.80836    0.32015   1.00
H2       0.68282    0.70435    0.31492   1.00
C6       0.73252    0.79491    0.35137   1.00
C6       0.73146    0.70920    0.28597   1.00
H2       0.74410    0.77897    0.36577   1.00
H2       0.76641    0.69338    0.27996   1.00
C6       0.72469    0.85868    0.35562   1.00
C6       0.67375    0.69017    0.26991   1.00
H2       0.68287    0.75275    0.34679   1.00
H2       0.76153    0.76473    0.28702   1.00
C6       0.79003    0.91774    0.36530   1.00
C6       0.63531    0.61276    0.26508   1.00
C6       0.70727    0.88465    0.33603   1.00
C6       0.62187    0.71151    0.27700   1.00
C6       0.66530    0.83799    0.37089   1.00
C6       0.70685    0.72880    0.24990   1.00
H2       0.80433    0.90074    0.37900   1.00
H2       0.67069    0.59584    0.26034   1.00
H2       0.83302    0.93768    0.35487   1.00
H2       0.60728    0.58260    0.27821   1.00
H2       0.78243    0.96009    0.36949   1.00
H2       0.59845    0.60075    0.25287   1.00
H2       0.69712    0.92596    0.33939   1.00
H2       0.58471    0.70250    0.26512   1.00
H2       0.74948    0.90424    0.32529   1.00
H2       0.59371    0.68233    0.29028   1.00
H2       0.66225    0.84365    0.32868   1.00
H2       0.64780    0.76555    0.28092   1.00
H2       0.67540    0.81990    0.38510   1.00
H2       0.74351    0.71498    0.24412   1.00
H2       0.65810    0.88107    0.37444   1.00
H2       0.66854    0.71679    0.23814   1.00
H2       0.61736    0.79733    0.36474   1.00
H2       0.73367    0.78389    0.25224   1.00
C4       0.82593    0.13256    0.34865   1.00
C4       0.80212    0.15856    0.33284   1.00
C3       0.78119    0.08459    0.36324   1.00
C3       0.73143    0.13317    0.32920   1.00
C3       0.89704    0.15491    0.35020   1.00
C3       0.85013    0.21192    0.32000   1.00
C2       0.87355    0.07741    0.38005   1.00
C2       0.75398    0.21338    0.30150   1.00
C3       0.80409    0.05753    0.37840   1.00
C3       0.70797    0.15988    0.31409   1.00
C3       0.91824    0.12582    0.36580   1.00
C3       0.82415    0.23798    0.30485   1.00
H1       0.73036    0.06802    0.36351   1.00
H1       0.69431    0.09385    0.33727   1.00
C5       0.94492    0.20525    0.33648   1.00
C5       0.92187    0.23760    0.32237   1.00
H1       0.76920    0.02290    0.38841   1.00
H1       0.65634    0.13952    0.31229   1.00
H1       0.96832    0.14007    0.36729   1.00
H1       0.85670    0.27623    0.29552   1.00
C6       1.01886    0.22301    0.33691   1.00
C6       0.97226    0.29886    0.31015   1.00
H2       1.02111    0.17619    0.33817   1.00
H2       0.95622    0.33692    0.31020   1.00
H2       1.04376    0.24284    0.32240   1.00
H2       1.02157    0.32620    0.31762   1.00
C6       1.06136    0.27523    0.35401   1.00
C6       0.98263    0.28025    0.28804   1.00
H2       1.03203    0.26087    0.36811   1.00
H2       0.93313    0.24451    0.28141   1.00
C6       1.13370    0.28575    0.35884   1.00
C6       1.02133    0.34030    0.27267   1.00
H2       1.06717    0.32455    0.34983   1.00
H2       1.00999    0.25201    0.28907   1.00
C6       1.12926    0.22057    0.36803   1.00
C6       0.98020    0.37651    0.26781   1.00
C6       1.17958    0.30718    0.33972   1.00
C6       1.09285    0.39348    0.28066   1.00
C6       1.16856    0.34360    0.37479   1.00
C6       1.03100    0.31074    0.25250   1.00
H2       1.09629    0.20347    0.38138   1.00
H2       0.92900    0.34012    0.26244   1.00
H2       1.10903    0.17885    0.35713   1.00
H2       0.97509    0.40213    0.28111   1.00
H2       1.17947    0.22984    0.37264   1.00
H2       1.00530    0.41511    0.25606   1.00
H2       1.23130    0.31910    0.34353   1.00
H2       1.12126    0.43249    0.26926   1.00
H2       1.15979    0.26628    0.32853   1.00
H2       1.08884    0.41925    0.29411   1.00
H2       1.18241    0.35216    0.33271   1.00
H2       1.12237    0.36906    0.28461   1.00
H2       1.13850    0.33068    0.38872   1.00
H2       0.98184    0.27332    0.24609   1.00
H2       1.21920    0.35257    0.37878   1.00
H2       1.05746    0.35078    0.24121   1.00
H2       1.17442    0.39143    0.36903   1.00
H2       1.06092    0.28566    0.25487   1.00
C4       0.82276    0.68289    0.85179   1.00
C4       0.79794    0.62975    0.83697   1.00
C3       0.78798    0.71901    0.85652   1.00
C3       0.73323    0.60418    0.82742   1.00
C3       0.88469    0.70138    0.86240   1.00
C3       0.83866    0.60037    0.83133   1.00
C2       0.87111    0.78809    0.88245   1.00
C2       0.74913    0.52460    0.80629   1.00
C3       0.81113    0.76979    0.87145   1.00
C3       0.70960    0.55346    0.81247   1.00
C3       0.90633    0.75310    0.87757   1.00
C3       0.81291    0.54909    0.81596   1.00
H1       0.74489    0.71026    0.84916   1.00
H1       0.70053    0.62098    0.83112   1.00
C5       0.92344    0.66882    0.85770   1.00
C5       0.90299    0.62200    0.84102   1.00
H1       0.78359    0.79374    0.87420   1.00
H1       0.66259    0.53742    0.80611   1.00
H1       0.94985    0.76732    0.88554   1.00
H1       0.84059    0.52732    0.81144   1.00
C6       0.98485    0.68367    0.87051   1.00
C6       0.94873    0.59578    0.83340   1.00
H2       0.97223    0.68368    0.88646   1.00
H2       0.94947    0.59703    0.81687   1.00
H2       0.99558    0.64196    0.87001   1.00
H2       1.00197    0.63070    0.83699   1.00
C6       1.05085    0.75144    0.86440   1.00
C6       0.92830    0.52317    0.84171   1.00
H2       1.03824    0.79164    0.86198   1.00
H2       0.87298    0.49019    0.84084   1.00
C6       1.11303    0.77977    0.87926   1.00
C6       0.96181    0.48469    0.83148   1.00
H2       1.06740    0.74336    0.84961   1.00
H2       0.94035    0.52822    0.85789   1.00
C6       1.09722    0.80296    0.89969   1.00
C6       0.93836    0.46567    0.80915   1.00
C6       1.13533    0.72643    0.88344   1.00
C6       1.04069    0.52730    0.83220   1.00
C6       1.17407    0.84311    0.86936   1.00
C6       0.93916    0.41729    0.84324   1.00
H2       1.08023    0.83985    0.89724   1.00
H2       0.88280    0.43647    0.80809   1.00
H2       1.05746    0.76006    0.90808   1.00
H2       0.95627    0.51088    0.79970   1.00
H2       1.14228    0.82694    0.90939   1.00
H2       0.95819    0.43480    0.80259   1.00
H2       1.18161    0.74826    0.89263   1.00
H2       1.06348    0.49814    0.82635   1.00
H2       1.09588    0.68270    0.89167   1.00
H2       1.05963    0.57321    0.82298   1.00
H2       1.14541    0.70818    0.86927   1.00
H2       1.05849    0.54259    0.84772   1.00
H2       1.16122    0.88274    0.86628   1.00
H2       0.88374    0.38490    0.84302   1.00
H2       1.21872    0.86505    0.87924   1.00
H2       0.96095    0.38829    0.83657   1.00
H2       1.18859    0.82971    0.85504   1.00
H2       0.95548    0.42741    0.85906   1.00
C4       0.30738    0.13189    0.84887   1.00
C4       0.35933    0.15592    0.83369   1.00
C3       0.24712    0.13630    0.84663   1.00
C3       0.35147    0.17936    0.81437   1.00
C3       0.31518    0.10226    0.86710   1.00
C3       0.42182    0.15679    0.83770   1.00
C2       0.20075    0.08029    0.87912   1.00
C2       0.46565    0.20764    0.80334   1.00
C3       0.19521    0.11103    0.86122   1.00
C3       0.40305    0.20478    0.79967   1.00
C3       0.26096    0.07679    0.88154   1.00
C3       0.47322    0.18342    0.82237   1.00
H1       0.23898    0.15867    0.83440   1.00
H1       0.30770    0.17822    0.81017   1.00
C5       0.37600    0.09901    0.87060   1.00
C5       0.43159    0.13118    0.85654   1.00
H1       0.15288    0.11551    0.85867   1.00
H1       0.39431    0.22117    0.78607   1.00
H1       0.26443    0.05495    0.89463   1.00
H1       0.51852    0.18532    0.82471   1.00
C6       0.38045    0.06107    0.88891   1.00
C6       0.50051    0.13911    0.86145   1.00
H2       0.33255    0.01318    0.89052   1.00
H2       0.54028    0.19033    0.85727   1.00
H2       0.41641    0.04320    0.88651   1.00
H2       0.50835    0.13906    0.87771   1.00
C6       0.39996    0.10429    0.90890   1.00
C6       0.51221    0.08313    0.85133   1.00
H2       0.37066    0.13060    0.90995   1.00
H2       0.49499    0.07585    0.83557   1.00
C6       0.39131    0.06596    0.92942   1.00
C6       0.58638    0.09466    0.85156   1.00
H2       0.45314    0.14472    0.90758   1.00
H2       0.47860    0.03469    0.85886   1.00
C6       0.31527    0.01485    0.93409   1.00
C6       0.63554    0.15677    0.83838   1.00
C6       0.43194    0.02761    0.92950   1.00
C6       0.61503    0.10468    0.87340   1.00
C6       0.41924    0.11929    0.94683   1.00
C6       0.58473    0.03059    0.84246   1.00
H2       0.28496    0.04016    0.93382   1.00
H2       0.61617    0.15177    0.82293   1.00
H2       0.29344    -0.02656   0.92310   1.00
H2       0.64240    0.20430    0.84464   1.00
H2       0.30938    -0.00809   0.94905   1.00
H2       0.68586    0.16153    0.83748   1.00
H2       0.42956    0.00516    0.94434   1.00
H2       0.66471    0.10778    0.87353   1.00
H2       0.41127    -0.01369   0.91843   1.00
H2       0.62165    0.15172    0.88002   1.00
H2       0.48542    0.06218    0.92583   1.00
H2       0.58064    0.06230    0.88311   1.00
H2       0.39172    0.14739    0.94758   1.00
H2       0.56551    0.02160    0.82692   1.00
H2       0.41390    0.09488    0.96152   1.00
H2       0.63557    0.03638    0.84217   1.00
H2       0.47322    0.15609    0.94461   1.00
H2       0.55188    -0.01485   0.85137   1.00
C4       0.86761    0.17440    0.84870   1.00
C4       0.84375    0.20221    0.83343   1.00
C3       0.85527    0.10627    0.84781   1.00
C3       0.81227    0.16646    0.81521   1.00
C3       0.90523    0.21551    0.86563   1.00
C3       0.85135    0.26828    0.83623   1.00
C2       0.91869    0.11916    0.87905   1.00
C2       0.79248    0.25698    0.80300   1.00
C3       0.88027    0.07949    0.86245   1.00
C3       0.78707    0.19275    0.80048   1.00
C3       0.93011    0.18643    0.88014   1.00
C3       0.82465    0.29306    0.82092   1.00
H1       0.82709    0.07333    0.83660   1.00
H1       0.80707    0.12027    0.81185   1.00
C5       0.91681    0.28352    0.86779   1.00
C5       0.88518    0.30791    0.85387   1.00
H1       0.86984    0.03006    0.86090   1.00
H1       0.76465    0.16432    0.78770   1.00
H1       0.95747    0.21423    0.89232   1.00
H1       0.82866    0.33962    0.82243   1.00
C6       0.96278    0.32885    0.88457   1.00
C6       0.88640    0.37445    0.85767   1.00
H2       1.00793    0.32348    0.88540   1.00
H2       0.83601    0.36742    0.85456   1.00
H2       0.98496    0.38256    0.88084   1.00
H2       0.89239    0.38752    0.87369   1.00
C6       0.92591    0.31506    0.90561   1.00
C6       0.94334    0.43581    0.84539   1.00
H2       0.89523    0.26011    0.90816   1.00
H2       0.94410    0.41984    0.82979   1.00
C6       0.97145    0.34764    0.92482   1.00
C6       0.93995    0.50316    0.84456   1.00
H2       0.88928    0.33300    0.90468   1.00
H2       0.99257    0.44773    0.85181   1.00
C6       1.01766    0.31658    0.92914   1.00
C6       0.87645    0.49322    0.83270   1.00
C6       1.01643    0.42604    0.92273   1.00
C6       0.93954    0.53039    0.86609   1.00
C6       0.92416    0.33255    0.94348   1.00
C6       1.00415    0.55831    0.83328   1.00
H2       0.98750    0.26110    0.93037   1.00
H2       0.87465    0.47295    0.81754   1.00
H2       1.05515    0.32890    0.91716   1.00
H2       0.82934    0.45809    0.84048   1.00
H2       1.04566    0.33612    0.94331   1.00
H2       0.87703    0.54144    0.83099   1.00
H2       1.04429    0.44877    0.93675   1.00
H2       0.94210    0.57978    0.86535   1.00
H2       1.05392    0.43945    0.91066   1.00
H2       0.89301    0.49557    0.87422   1.00
H2       0.98526    0.44905    0.91926   1.00
H2       0.98299    0.53649    0.87491   1.00
H2       0.89171    0.27771    0.94577   1.00
H2       1.00652    0.54188    0.81787   1.00
H2       0.95368    0.35395    0.95733   1.00
H2       1.00389    0.60629    0.83219   1.00
H2       0.89116    0.35444    0.94152   1.00
H2       1.05073    0.56863    0.84116   1.00
C4       0.01658    0.49486    0.31496   1.00
C4       -0.03538   0.47154    0.33013   1.00
C3       0.02099    0.44985    0.30073   1.00
C3       -0.09058   0.40307    0.33079   1.00
C3       0.06654    0.56571    0.31378   1.00
C3       -0.03293   0.51779    0.34532   1.00
C2       0.11963    0.54241    0.28366   1.00
C2       -0.13867   0.42347    0.36137   1.00
C3       0.07068    0.47282    0.28548   1.00
C3       -0.14051   0.37955    0.34597   1.00
C3       0.11607    0.58708    0.29795   1.00
C3       -0.08457   0.49172    0.36058   1.00
H1       -0.01133   0.39860    0.30104   1.00
H1       -0.09696   0.36787    0.32014   1.00
C5       0.06645    0.61305    0.32821   1.00
C5       0.01978    0.58804    0.34495   1.00
H1       0.07095    0.43781    0.27563   1.00
H1       -0.17885   0.32951    0.34565   1.00
H1       0.15214    0.63710    0.29653   1.00
H1       -0.08428   0.52293    0.37172   1.00
C6       0.11497    0.68871    0.32547   1.00
C6       0.02596    0.63460    0.36230   1.00
H2       0.11535    0.70189    0.30956   1.00
H2       0.01952    0.60787    0.37659   1.00
H2       0.09595    0.71902    0.33273   1.00
H2       0.07764    0.67724    0.36377   1.00
C6       0.18870    0.71248    0.33349   1.00
C6       -0.02450   0.66280    0.36050   1.00
H2       0.20445    0.67626    0.32864   1.00
H2       -0.07494   0.62154    0.35609   1.00
C6       0.24658    0.78570    0.32747   1.00
C6       -0.03352   0.69874    0.37957   1.00
H2       0.18624    0.70908    0.35003   1.00
H2       -0.00745   0.69882    0.34786   1.00
C6       0.26098    0.79167    0.30434   1.00
C6       -0.06797   0.64798    0.39735   1.00
C6       0.22918    0.84098    0.33400   1.00
C6       0.03552    0.75887    0.38685   1.00
C6       0.31320    0.80045    0.33849   1.00
C6       -0.08055   0.72776    0.37378   1.00
H2       0.27235    0.75258    0.29919   1.00
H2       -0.11638   0.60432    0.39260   1.00
H2       0.21750    0.78601    0.29568   1.00
H2       -0.03565   0.62872    0.40303   1.00
H2       0.30448    0.84131    0.30049   1.00
H2       -0.07833   0.67237    0.41005   1.00
H2       0.27184    0.89206    0.33105   1.00
H2       0.02813    0.78657    0.39922   1.00
H2       0.18531    0.83577    0.32563   1.00
H2       0.06893    0.74068    0.39242   1.00
H2       0.21742    0.83698    0.35016   1.00
H2       0.06152    0.79467    0.37449   1.00
H2       0.32818    0.76318    0.33424   1.00
H2       -0.13039   0.68716    0.36873   1.00
H2       0.35535    0.85098    0.33466   1.00
H2       -0.08878   0.75303    0.38668   1.00
H2       0.30669    0.79835    0.35493   1.00
H2       -0.05830   0.76504    0.36156   1.00
C4       0.47873    0.98317    0.31504   1.00
C4       0.50733    1.03496    0.33025   1.00
C3       0.43355    0.98208    0.29981   1.00
C3       0.49853    1.09303    0.33004   1.00
C3       0.49531    0.92997    0.31483   1.00
C3       0.54645    1.02937    0.34639   1.00
C2       0.42351    0.88034    0.28366   1.00
C2       0.56230    1.13805    0.36156   1.00
C3       0.40698    0.93250    0.28452   1.00
C3       0.52483    1.14288    0.34525   1.00
C3       0.46748    0.88064    0.29894   1.00
C3       0.57204    1.08105    0.36164   1.00
H1       0.41770    1.01689    0.29937   1.00
H1       0.47326    1.10162    0.31873   1.00
C5       0.53824    0.92673    0.33026   1.00
C5       0.55945    0.97357    0.34695   1.00
H1       0.37488    0.93469    0.27393   1.00
H1       0.51648    1.18339    0.34427   1.00
H1       0.47847    0.84231    0.29820   1.00
H1       0.59969    1.07861    0.37343   1.00
C6       0.56120    0.87455    0.32863   1.00
C6       0.59463    0.96439    0.36521   1.00
H2       0.57632    0.87310    0.31303   1.00
H2       0.57306    0.97265    0.37897   1.00
H2       0.60865    0.89070    0.33674   1.00
H2       0.58188    0.91161    0.36702   1.00
C6       0.50639    0.80199    0.33631   1.00
C6       0.67416    1.01085    0.36460   1.00
H2       0.45622    0.78943    0.33050   1.00
H2       0.68747    1.06232    0.35987   1.00
C6       0.51793    0.74095    0.33124   1.00
C6       0.71455    1.01708    0.38451   1.00
H2       0.50268    0.80474    0.35277   1.00
H2       0.69338    0.99173    0.35257   1.00
C6       0.51293    0.72648    0.30812   1.00
C6       0.69823    1.05405    0.40154   1.00
C6       0.58778    0.75372    0.33915   1.00
C6       0.69959    0.94637    0.39230   1.00
C6       0.46126    0.67591    0.34181   1.00
C6       0.79204    1.06015    0.37990   1.00
H2       0.46460    0.71834    0.30200   1.00
H2       0.70721    1.10373    0.39640   1.00
H2       0.55399    0.76863    0.29985   1.00
H2       0.64532    1.02441    0.40643   1.00
H2       0.51631    0.68101    0.30487   1.00
H2       0.73006    1.06235    0.41486   1.00
H2       0.59325    0.70896    0.33684   1.00
H2       0.73160    0.95158    0.40533   1.00
H2       0.62962    0.79623    0.33118   1.00
H2       0.64662    0.91562    0.39709   1.00
H2       0.59319    0.76546    0.35532   1.00
H2       0.70931    0.91867    0.38045   1.00
H2       0.41077    0.66417    0.33658   1.00
H2       0.80548    1.11098    0.37453   1.00
H2       0.46688    0.63167    0.33860   1.00
H2       0.82247    1.06634    0.39342   1.00
H2       0.46301    0.68246    0.35824   1.00
H2       0.80702    1.03594    0.36825   1.00
C4       0.50447    0.52129    0.31503   1.00
C4       0.52768    0.49269    0.33025   1.00
C3       0.54862    0.56665    0.29984   1.00
C3       0.59461    0.50167    0.33007   1.00
C3       0.43464    0.50452    0.31478   1.00
C3       0.48290    0.45337    0.34635   1.00
C2       0.45687    0.57652    0.28366   1.00
C2       0.57579    0.43771    0.36155   1.00
C3       0.52560    0.59322    0.28456   1.00
C3       0.61816    0.47536    0.34528   1.00
C3       0.41315    0.53237    0.29890   1.00
C3       0.50898    0.42778    0.36160   1.00
H1       0.59930    0.58263    0.29943   1.00
H1       0.62854    0.52709    0.31878   1.00
C5       0.38842    0.46141    0.33018   1.00
C5       0.41402    0.44018    0.34687   1.00
H1       0.55994    0.62546    0.27400   1.00
H1       0.66708    0.48385    0.34433   1.00
H1       0.36380    0.52126    0.29813   1.00
H1       0.47884    0.39999    0.37336   1.00
C6       0.31325    0.43827    0.32850   1.00
C6       0.36957    0.40478    0.36509   1.00
H2       0.29681    0.42324    0.31289   1.00
H2       0.39927    0.42631    0.37887   1.00
H2       0.28199    0.39074    0.33658   1.00
H2       0.32942    0.41738    0.36689   1.00
C6       0.29525    0.49289    0.33620   1.00
C6       0.33669    0.32528    0.36443   1.00
H2       0.33281    0.54314    0.33043   1.00
H2       0.37497    0.31213    0.35971   1.00
C6       0.22264    0.48119    0.33109   1.00
C6       0.30245    0.28470    0.38432   1.00
H2       0.30158    0.49649    0.35266   1.00
H2       0.29844    0.30606    0.35238   1.00
C6       0.21331    0.48632    0.30797   1.00
C6       0.35564    0.30102    0.40137   1.00
C6       0.16563    0.41122    0.33895   1.00
C6       0.24651    0.29941    0.39209   1.00
C6       0.21401    0.53767    0.34168   1.00
C6       0.26824    0.20726    0.37965   1.00
H2       0.25347    0.53475    0.30189   1.00
H2       0.39647    0.29222    0.39625   1.00
H2       0.21458    0.44539    0.29968   1.00
H2       0.37875    0.35389    0.40629   1.00
H2       0.16442    0.48283    0.30470   1.00
H2       0.33206    0.26907    0.41467   1.00
H2       0.11535    0.40562    0.33661   1.00
H2       0.21967    0.26728    0.40509   1.00
H2       0.16647    0.36950    0.33096   1.00
H2       0.26857    0.35233    0.39690   1.00
H2       0.17186    0.40571    0.35512   1.00
H2       0.20916    0.28969    0.38022   1.00
H2       0.25270    0.58824    0.33650   1.00
H2       0.30577    0.19398    0.37430   1.00
H2       0.16411    0.53194    0.33845   1.00
H2       0.24395    0.17670    0.39315   1.00
H2       0.21869    0.53581    0.35811   1.00
H2       0.22912    0.19227    0.36798   1.00
C4       0.16935    0.31567    0.14862   1.00
C4       0.19612    0.36917    0.16334   1.00
C3       0.10075    0.26072    0.14926   1.00
C3       0.15443    0.37536    0.17841   1.00
C3       0.21212    0.31626    0.13257   1.00
C3       0.26717    0.41890    0.16318   1.00
C2       0.11418    0.20923    0.11831   1.00
C2       0.25079    0.47539    0.19372   1.00
C3       0.07379    0.20925    0.13453   1.00
C3       0.18086    0.42659    0.19321   1.00
C3       0.18259    0.26309    0.11781   1.00
C3       0.29214    0.47005    0.17859   1.00
H1       0.06798    0.25566    0.16056   1.00
H1       0.10317    0.34327    0.17907   1.00
C5       0.28241    0.36868    0.13162   1.00
C5       0.31117    0.41701    0.14786   1.00
H1       0.02383    0.17118    0.13580   1.00
H1       0.14815    0.42811    0.20371   1.00
H1       0.21124    0.26202    0.10610   1.00
H1       0.34243    0.50602    0.17906   1.00
C6       0.32504    0.37278    0.11341   1.00
C6       0.38732    0.46543    0.14916   1.00
H2       0.29534    0.36505    0.09965   1.00
H2       0.40386    0.46733    0.16479   1.00
H2       0.36746    0.42417    0.11114   1.00
H2       0.41581    0.44539    0.14133   1.00
C6       0.35318    0.32215    0.11463   1.00
C6       0.40971    0.53839    0.14075   1.00
H2       0.31276    0.27230    0.11980   1.00
H2       0.37481    0.55495    0.14629   1.00
C6       0.38478    0.31090    0.09490   1.00
C6       0.48420    0.59655    0.14537   1.00
H2       0.39183    0.34028    0.12656   1.00
H2       0.40275    0.53427    0.12430   1.00
C6       0.33025    0.27490    0.07812   1.00
C6       0.49519    0.61330    0.16835   1.00
C6       0.44346    0.37900    0.08652   1.00
C6       0.53769    0.57805    0.13778   1.00
C6       0.41461    0.26412    0.10009   1.00
C6       0.49691    0.66214    0.13412   1.00
H2       0.28753    0.22713    0.08367   1.00
H2       0.45748    0.62551    0.17425   1.00
H2       0.31006    0.30688    0.07284   1.00
H2       0.49116    0.57062    0.17708   1.00
H2       0.35172    0.26304    0.06497   1.00
H2       0.54567    0.65697    0.17125   1.00
H2       0.46832    0.37012    0.07363   1.00
H2       0.58940    0.62078    0.13976   1.00
H2       0.42437    0.41206    0.08133   1.00
H2       0.53403    0.53492    0.14621   1.00
H2       0.48189    0.40608    0.09817   1.00
H2       0.53017    0.56463    0.12173   1.00
H2       0.37500    0.21493    0.10589   1.00
H2       0.46084    0.67787    0.13910   1.00
H2       0.43692    0.25437    0.08672   1.00
H2       0.54826    0.70446    0.13700   1.00
H2       0.45446    0.28742    0.11159   1.00
H2       0.49126    0.65396    0.11776   1.00
C4       0.69250    0.86819    0.15109   1.00
C4       0.64278    0.84273    0.16694   1.00
C3       0.68820    0.90525    0.13424   1.00
C3       0.58942    0.85861    0.16815   1.00
C3       0.74897    0.85653    0.15187   1.00
C3       0.64582    0.79976    0.18230   1.00
C2       0.79478    0.92258    0.11955   1.00
C2       0.54024    0.78857    0.19841   1.00
C3       0.73788    0.93196    0.11898   1.00
C3       0.53946    0.83215    0.18333   1.00
C3       0.79866    0.88492    0.13609   1.00
C3       0.59374    0.77356    0.19744   1.00
H1       0.64845    0.91364    0.13231   1.00
H1       0.58524    0.89055    0.15816   1.00
C5       0.75454    0.81713    0.16801   1.00
C5       0.69999    0.78429    0.18237   1.00
H1       0.73196    0.95846    0.10727   1.00
H1       0.50216    0.84533    0.18331   1.00
H1       0.83977    0.87812    0.13619   1.00
H1       0.59390    0.74247    0.20853   1.00
C6       0.81813    0.81137    0.16982   1.00
C6       0.69851    0.73304    0.19741   1.00
H2       0.86277    0.86135    0.16725   1.00
H2       0.64698    0.68938    0.19811   1.00
H2       0.82644    0.80080    0.18531   1.00
H2       0.72727    0.70958    0.19198   1.00
C6       0.81759    0.75597    0.15544   1.00
C6       0.72546    0.76419    0.21896   1.00
H2       0.79957    0.76005    0.14040   1.00
H2       0.70410    0.79626    0.22331   1.00
C6       0.88616    0.75579    0.15265   1.00
C6       0.71236    0.71344    0.23680   1.00
H2       0.77924    0.70600    0.16115   1.00
H2       0.78038    0.79894    0.21774   1.00
C6       0.94048    0.82086    0.14155   1.00
C6       0.63527    0.66927    0.24172   1.00
C6       0.91540    0.74927    0.17323   1.00
C6       0.74176    0.66612    0.23212   1.00
C6       0.87226    0.69346    0.13939   1.00
C6       0.74849    0.75536    0.25609   1.00
H2       0.92099    0.82754    0.12709   1.00
H2       0.61272    0.70120    0.24477   1.00
H2       0.95581    0.86645    0.15062   1.00
H2       0.60728    0.63531    0.22921   1.00
H2       0.98637    0.81811    0.13843   1.00
H2       0.62700    0.63749    0.25505   1.00
H2       0.96048    0.74429    0.17102   1.00
H2       0.73671    0.63435    0.24520   1.00
H2       0.93044    0.79418    0.18263   1.00
H2       0.71483    0.63213    0.21950   1.00
H2       0.87762    0.70461    0.18155   1.00
H2       0.79569    0.69595    0.22819   1.00
H2       0.85216    0.69594    0.12456   1.00
H2       0.72903    0.78920    0.26019   1.00
H2       0.91885    0.69137    0.13689   1.00
H2       0.74042    0.72209    0.26904   1.00
H2       0.83525    0.64576    0.14662   1.00
H2       0.80339    0.78664    0.25371   1.00
C4       0.13257    0.82594    0.15135   1.00
C4       0.15857    0.80214    0.16716   1.00
C3       0.08451    0.78118    0.13678   1.00
C3       0.13311    0.73145    0.17082   1.00
C3       0.15500    0.89707    0.14978   1.00
C3       0.21201    0.85015    0.17998   1.00
C2       0.07742    0.87356    0.11996   1.00
C2       0.21339    0.75400    0.19850   1.00
C3       0.05745    0.80409    0.12162   1.00
C3       0.15982    0.70799    0.18594   1.00
C3       0.12590    0.91827    0.13419   1.00
C3       0.23807    0.82417    0.19513   1.00
H1       0.06788    0.73035    0.13653   1.00
H1       0.09374    0.69433    0.16277   1.00
C5       0.20542    0.94496    0.16348   1.00
C5       0.23777    0.92189    0.17759   1.00
H1       0.02276    0.76919    0.11163   1.00
H1       0.13941    0.65635    0.18775   1.00
H1       0.14021    0.96836    0.13268   1.00
H1       0.27638    0.85672    0.20444   1.00
C6       0.22328    1.01892    0.16303   1.00
C6       0.29910    0.97228    0.18978   1.00
H2       0.17649    1.02124    0.16178   1.00
H2       0.33710    0.95617    0.18973   1.00
H2       0.24318    1.04387    0.17753   1.00
H2       0.32646    1.02156    0.18230   1.00
C6       0.27545    1.06132    0.14591   1.00
C6       0.28060    0.98276    0.21190   1.00
H2       0.26101    1.03194    0.13182   1.00
H2       0.24483    0.93331    0.21854   1.00
C6       0.28605    1.13368    0.14106   1.00
C6       0.34072    1.02146    0.22724   1.00
H2       0.32476    1.06708    0.15008   1.00
H2       0.25242    1.01019    0.21086   1.00
C6       0.22088    1.12930    0.13189   1.00
C6       0.37686    0.98027    0.23211   1.00
C6       0.30760    1.17963    0.16017   1.00
C6       0.39393    1.09293    0.21922   1.00
C6       0.34386    1.16842    0.12509   1.00
C6       0.31127    1.03125    0.24742   1.00
H2       0.20369    1.09627    0.11855   1.00
H2       0.34044    0.92910    0.23749   1.00
H2       0.17920    1.10915    0.14280   1.00
H2       0.40240    0.97507    0.21880   1.00
H2       0.23020    1.17951    0.12726   1.00
H2       0.41551    1.00537    0.24385   1.00
H2       0.31958    1.23136    0.15634   1.00
H2       0.43300    1.12135    0.23062   1.00
H2       0.26674    1.15992    0.17137   1.00
H2       0.41963    1.08883    0.20577   1.00
H2       0.35258    1.18242    0.16717   1.00
H2       0.36956    1.12249    0.21528   1.00
H2       0.33085    1.13831    0.11117   1.00
H2       0.27383    0.98214    0.25385   1.00
H2       0.35288    1.21906    0.12109   1.00
H2       0.35135    1.05772    0.25870   1.00
H2       0.39168    1.17424    0.13084   1.00
H2       0.28624    1.06123    0.24505   1.00
C4       0.98353    0.50549    0.68507   1.00
C4       1.03680    0.53294    0.67028   1.00
C3       0.94244    0.43408    0.68861   1.00
C3       1.05740    0.49164    0.65954   1.00
C3       0.97004    0.55039    0.69689   1.00
C3       1.07142    0.60434    0.66590   1.00
C2       0.87800    0.45007    0.71565   1.00
C2       1.14223    0.58785    0.63967   1.00
C3       0.89149    0.40711    0.70349   1.00
C3       1.10826    0.51807    0.64463   1.00
C3       0.91795    0.52090    0.71197   1.00
C3       1.12266    0.62917    0.65052   1.00
H1       0.94754    0.39894    0.68037   1.00
H1       1.03671    0.44092    0.66230   1.00
C5       1.00779    0.62257    0.69343   1.00
C5       1.05489    0.64896    0.67682   1.00
H1       0.86382    0.35515    0.70535   1.00
H1       1.12058    0.48554    0.63737   1.00
H1       0.90719    0.55120    0.72077   1.00
H1       1.14808    0.67955    0.64688   1.00
C6       0.99803    0.66994    0.70746   1.00
C6       1.08671    0.72298    0.67054   1.00
H2       0.99666    0.65360    0.72309   1.00
H2       1.08563    0.72587    0.65406   1.00
H2       1.04262    0.72074    0.70766   1.00
H2       1.05529    0.74465    0.67497   1.00
C6       0.93361    0.67570    0.70216   1.00
C6       1.16051    0.76885    0.67914   1.00
H2       0.89046    0.62496    0.69903   1.00
H2       1.18968    0.74263    0.67736   1.00
C6       0.90983    0.71070    0.71812   1.00
C6       1.20399    0.84228    0.67011   1.00
H2       0.94377    0.70356    0.68787   1.00
H2       1.15623    0.77339    0.69550   1.00
C6       0.88391    0.66816    0.73789   1.00
C6       1.22183    0.84032    0.64750   1.00
C6       0.96763    0.78365    0.72337   1.00
C6       1.16702    0.88395    0.67219   1.00
C6       0.84961    0.71625    0.70896   1.00
C6       1.27211    0.88020    0.68205   1.00
H2       0.84378    0.61599    0.73466   1.00
H2       1.24702    0.81030    0.64547   1.00
H2       0.92483    0.66572    0.74581   1.00
H2       1.17641    0.81802    0.63800   1.00
H2       0.86308    0.69047    0.74834   1.00
H2       1.25602    0.89154    0.64174   1.00
H2       0.94916    0.80936    0.73337   1.00
H2       1.19970    0.93649    0.66719   1.00
H2       1.00945    0.78234    0.73114   1.00
H2       1.12097    0.86202    0.66293   1.00
H2       0.98778    0.81427    0.70965   1.00
H2       1.15261    0.88492    0.68792   1.00
H2       0.80702    0.66592    0.70517   1.00
H2       1.30064    0.85319    0.68090   1.00
H2       0.83087    0.74002    0.71962   1.00
H2       1.30453    0.93171    0.67620   1.00
H2       0.86512    0.74693    0.69515   1.00
H2       1.26295    0.88446    0.69809   1.00
C4       0.52148    0.01670    0.68500   1.00
C4       0.49544    -0.03664   0.67024   1.00
C3       0.49477    0.06144    0.68745   1.00
C3       0.43644    -0.05355   0.65839   1.00
C3       0.57639    0.02651    0.69792   1.00
C3       0.52898    -0.07516   0.66702   1.00
C2       0.57185    0.12247    0.71551   1.00
C2       0.44469    -0.14229   0.63969   1.00
C3       0.51887    0.11252    0.70229   1.00
C3       0.41194    -0.10450   0.64350   1.00
C3       0.59920    0.07887    0.71292   1.00
C3       0.50262    -0.12638   0.65164   1.00
H1       0.45727    0.05902    0.67840   1.00
H1       0.40866    -0.02994   0.66027   1.00
C5       0.60727    -0.01507   0.69562   1.00
C5       0.58691    -0.06242   0.67908   1.00
H1       0.49727    0.14292    0.70333   1.00
H1       0.36930    -0.11405   0.63541   1.00
H1       0.63782    0.08710    0.72248   1.00
H1       0.52535    -0.15452   0.64881   1.00
C6       0.66029    -0.00901   0.71076   1.00
C6       0.62620    -0.09845   0.67406   1.00
H2       0.64321    -0.00637   0.72601   1.00
H2       0.63304    -0.09776   0.65769   1.00
H2       0.66293    -0.05557   0.71156   1.00
H2       0.67866    -0.06977   0.67931   1.00
C6       0.73334    0.05248    0.70632   1.00
C6       0.59241    -0.17268   0.68281   1.00
H2       0.72980    0.09765    0.70258   1.00
H2       0.53742    -0.19884   0.68013   1.00
C6       0.78863    0.07295    0.72328   1.00
C6       0.61956    -0.21991   0.67490   1.00
H2       0.75214    0.04057    0.69255   1.00
H2       0.59823    -0.16876   0.69929   1.00
C6       0.77104    0.10113    0.74238   1.00
C6       0.60332    -0.23711   0.65209   1.00
C6       0.79797    0.01210    0.72945   1.00
C6       0.69739    -0.18737   0.67830   1.00
C6       0.85784    0.13038    0.71494   1.00
C6       0.58342    -0.28807   0.68687   1.00
H2       0.76302    0.14348    0.73848   1.00
H2       0.54884    -0.25917   0.64913   1.00
H2       0.72498    0.06202    0.74977   1.00
H2       0.63056    -0.19189   0.64264   1.00
H2       0.81209    0.11963    0.75353   1.00
H2       0.61818    -0.27376   0.64707   1.00
H2       0.83992    0.02808    0.74020   1.00
H2       0.71494    -0.22266   0.67408   1.00
H2       0.75210    -0.02796   0.73670   1.00
H2       0.72559    -0.14157   0.66911   1.00
H2       0.80899    -0.00961   0.71620   1.00
H2       0.71038    -0.17345   0.69418   1.00
H2       0.85422    0.17496    0.71054   1.00
H2       0.52822    -0.31356   0.68481   1.00
H2       0.89810    0.14677    0.72630   1.00
H2       0.60040    -0.32305   0.68178   1.00
H2       0.87374    0.11312    0.70165   1.00
H2       0.59408    -0.27944   0.70308   1.00
C4       0.49519    0.47850    0.68501   1.00
C4       0.46787    0.50453    0.67024   1.00
C3       0.56663    0.50536    0.68749   1.00
C3       0.50994    0.56366    0.65844   1.00
C3       0.45008    0.42345    0.69788   1.00
C3       0.39583    0.47085    0.66698   1.00
C2       0.55059    0.42815    0.71552   1.00
C2       0.41298    0.55528    0.63969   1.00
C3       0.59362    0.48128    0.70234   1.00
C3       0.48349    0.58815    0.64355   1.00
C3       0.47963    0.40064    0.71288   1.00
C3       0.37097    0.49721    0.65159   1.00
H1       0.60173    0.54299    0.67848   1.00
H1       0.56132    0.59154    0.66036   1.00
C5       0.37763    0.39241    0.69553   1.00
C5       0.35066    0.41279    0.67899   1.00
H1       0.64563    0.50299    0.70341   1.00
H1       0.51657    0.63089    0.63549   1.00
H1       0.44924    0.36192    0.72241   1.00
H1       0.32012    0.47439    0.64873   1.00
C6       0.33064    0.33922    0.71063   1.00
C6       0.27538    0.37337    0.67392   1.00
H2       0.35022    0.35622    0.72590   1.00
H2       0.26936    0.36664    0.65754   1.00
H2       0.28136    0.33643    0.71140   1.00
H2       0.25168    0.32087    0.67914   1.00
C6       0.31931    0.26628    0.70615   1.00
C6       0.23472    0.40692    0.68266   1.00
H2       0.36810    0.26998    0.70244   1.00
H2       0.26344    0.46194    0.68002   1.00
C6       0.28447    0.21084    0.72307   1.00
C6       0.16036    0.37965    0.67471   1.00
H2       0.28871    0.24751    0.69236   1.00
H2       0.23269    0.40098    0.69914   1.00
C6       0.33012    0.22840    0.74220   1.00
C6       0.15952    0.39603    0.65190   1.00
C6       0.21417    0.20126    0.72920   1.00
C6       0.11522    0.30178    0.67805   1.00
C6       0.27295    0.14176    0.71469   1.00
C6       0.12810    0.41555    0.68668   1.00
H2       0.38057    0.23658    0.73832   1.00
H2       0.19185    0.45055    0.64899   1.00
H2       0.33689    0.27435    0.74961   1.00
H2       0.17768    0.36895    0.64245   1.00
H2       0.30757    0.18726    0.75332   1.00
H2       0.10802    0.38108    0.64686   1.00
H2       0.18820    0.15921    0.73992   1.00
H2       0.06238    0.28413    0.67380   1.00
H2       0.21980    0.24702    0.73648   1.00
H2       0.13300    0.27374    0.66886   1.00
H2       0.18151    0.19025    0.71593   1.00
H2       0.11607    0.28869    0.69393   1.00
H2       0.32124    0.14555    0.71032   1.00
H2       0.15770    0.47077    0.68466   1.00
H2       0.24907    0.10140    0.72603   1.00
H2       0.07615    0.39848    0.68156   1.00
H2       0.23988    0.12588    0.70138   1.00
H2       0.12597    0.40477    0.70288   1.00
C4       0.49917    0.02759    0.18174   1.00
C4       0.47304    -0.02253   0.16602   1.00
C3       0.56077    0.04527    0.19229   1.00
C3       0.51013    -0.05319   0.15828   1.00
C3       0.46295    0.06178    0.18737   1.00
C3       0.40744    -0.04332   0.15749   1.00
C2       0.55383    0.13131    0.21287   1.00
C2       0.41883    -0.12631   0.13490   1.00
C3       0.58754    0.09576    0.20731   1.00
C3       0.48382    -0.10375   0.14328   1.00
C3       0.49214    0.11315    0.20266   1.00
C3       0.38233    -0.09523   0.14231   1.00
H1       0.58814    0.02164    0.18959   1.00
H1       0.55793    -0.03945   0.16312   1.00
C5       0.39920    0.04415    0.17789   1.00
C5       0.36893    -0.01223   0.16406   1.00
H1       0.63233    0.10632    0.21429   1.00
H1       0.51300    -0.12404   0.13841   1.00
H1       0.46813    0.13891    0.20697   1.00
H1       0.33570    -0.11170   0.13599   1.00
C6       0.36515    0.08566    0.18242   1.00
C6       0.29670    -0.03976   0.15649   1.00
H2       0.40355    0.13964    0.18231   1.00
H2       0.27008    -0.09529   0.15695   1.00
H2       0.33186    0.08283    0.17013   1.00
H2       0.26655    -0.02858   0.16698   1.00
C6       0.32351    0.06451    0.20272   1.00
C6       0.29314    -0.01267   0.13491   1.00
H2       0.35325    0.05757    0.21458   1.00
H2       0.33079    -0.01459   0.12497   1.00
C6       0.29895    0.11317    0.21124   1.00
C6       0.22278    -0.04883   0.12369   1.00
H2       0.27880    0.01414    0.20046   1.00
H2       0.30949    0.04143    0.13636   1.00
C6       0.35980    0.18278    0.21794   1.00
C6       0.20088    -0.12357   0.11810   1.00
C6       0.25538    0.12547    0.19551   1.00
C6       0.16598    -0.04793   0.13656   1.00
C6       0.25395    0.07933    0.23022   1.00
C6       0.22971    -0.00998   0.10362   1.00
H2       0.39221    0.17579    0.22881   1.00
H2       0.24042    -0.12605   0.10928   1.00
H2       0.39136    0.21130    0.20508   1.00
H2       0.19098    -0.15494   0.13158   1.00
H2       0.34205    0.21449    0.22514   1.00
H2       0.15425    -0.14681   0.10907   1.00
H2       0.23449    0.15541    0.20208   1.00
H2       0.11837    -0.06885   0.12804   1.00
H2       0.28595    0.15342    0.18241   1.00
H2       0.15577    -0.07855   0.15024   1.00
H2       0.21297    0.07717    0.19022   1.00
H2       0.18075    0.00401    0.14106   1.00
H2       0.28259    0.07016    0.24191   1.00
H2       0.26879    -0.00973   0.09386   1.00
H2       0.23588    0.11166    0.23681   1.00
H2       0.18187    -0.03365   0.09515   1.00
H2       0.20930    0.03050    0.22638   1.00
H2       0.24377    0.04287    0.10659   1.00
C4       0.98267    0.47935    0.18482   1.00
C4       1.03419    0.50781    0.16952   1.00
C3       0.98654    0.44157    0.20155   1.00
C3       1.09641    0.50670    0.17098   1.00
C3       0.92465    0.48841    0.18357   1.00
C3       1.02401    0.53887    0.15200   1.00
C2       0.88019    0.42461    0.21630   1.00
C2       1.13697    0.56237    0.13812   1.00
C3       0.93712    0.41529    0.21687   1.00
C3       1.14615    0.53280    0.15574   1.00
C3       0.87563    0.46115    0.19956   1.00
C3       1.07576    0.56452    0.13676   1.00
H1       1.02508    0.43116    0.20311   1.00
H1       1.10822    0.48749    0.18328   1.00
C5       0.91649    0.52350    0.16665   1.00
C5       0.96369    0.54407    0.15007   1.00
H1       0.94300    0.38874    0.22858   1.00
H1       1.18980    0.53020    0.15767   1.00
H1       0.83393    0.46696    0.19928   1.00
H1       1.07017    0.58655    0.12402   1.00
C6       0.85876    0.53903    0.16661   1.00
C6       0.95024    0.57042    0.13051   1.00
H2       0.85512    0.55744    0.18157   1.00
H2       0.96177    0.54738    0.11773   1.00
H2       0.87035    0.58279    0.15713   1.00
H2       0.89616    0.55167    0.12830   1.00
C6       0.78893    0.47706    0.15972   1.00
C6       0.98980    0.65021    0.12907   1.00
H2       0.78149    0.43054    0.16707   1.00
H2       1.04236    0.67018    0.13415   1.00
C6       0.72315    0.48189    0.16336   1.00
C6       0.99201    0.68278    0.10794   1.00
H2       0.79260    0.46919    0.14353   1.00
H2       0.96714    0.66926    0.14004   1.00
C6       0.70800    0.48217    0.18630   1.00
C6       1.03324    0.66715    0.09218   1.00
C6       0.72852    0.54613    0.15323   1.00
C6       0.91942    0.65808    0.09956   1.00
C6       0.66151    0.41826    0.15379   1.00
C6       1.02815    0.76142    0.11049   1.00
H2       0.70501    0.43798    0.19396   1.00
H2       1.08443    0.68298    0.09778   1.00
H2       0.74740    0.52785    0.19376   1.00
H2       1.00835    0.61293    0.08870   1.00
H2       0.65963    0.48077    0.18867   1.00
H2       1.03850    0.69392    0.07794   1.00
H2       0.68066    0.54649    0.15461   1.00
H2       0.92140    0.68473    0.08556   1.00
H2       0.76820    0.59250    0.16037   1.00
H2       0.89336    0.60370    0.09617   1.00
H2       0.74058    0.54792    0.13715   1.00
H2       0.88884    0.66720    0.11055   1.00
H2       0.65499    0.37137    0.16058   1.00
H2       1.08002    0.78161    0.11618   1.00
H2       0.61416    0.41907    0.15606   1.00
H2       1.03136    0.78657    0.09607   1.00
H2       0.66854    0.41593    0.13749   1.00
H2       1.00063    0.77580    0.12115   1.00
C4       0.52131    0.50451    0.18497   1.00
C4       0.49271    0.52772    0.16976   1.00
C3       0.56687    0.54870    0.20012   1.00
C3       0.50190    0.59473    0.16989   1.00
C3       0.50434    0.43461    0.18526   1.00
C3       0.45317    0.48285    0.15370   1.00
C2       0.57655    0.45691    0.21634   1.00
C2       0.43771    0.57582    0.13846   1.00
C3       0.59344    0.52568    0.21540   1.00
C3       0.47558    0.61828    0.15469   1.00
C3       0.53220    0.41313    0.20115   1.00
C3       0.42758    0.50894    0.13845   1.00
H1       0.58299    0.59942    0.20049   1.00
H1       0.52748    0.62873    0.18116   1.00
C5       0.46101    0.38833    0.16991   1.00
C5       0.43977    0.41391    0.15322   1.00
H1       0.62583    0.56006    0.22592   1.00
H1       0.48423    0.66725    0.15561   1.00
H1       0.52095    0.36374    0.20195   1.00
H1       0.39964    0.47873    0.12672   1.00
C6       0.43768    0.31313    0.17164   1.00
C6       0.40413    0.36934    0.13504   1.00
H2       0.42275    0.29684    0.18727   1.00
H2       0.42560    0.39890    0.12123   1.00
H2       0.39005    0.28190    0.16360   1.00
H2       0.41655    0.32906    0.13325   1.00
C6       0.49208    0.29485    0.16393   1.00
C6       0.32465    0.33668    0.13575   1.00
H2       0.54242    0.33235    0.16965   1.00
H2       0.31169    0.37511    0.14046   1.00
C6       0.48020    0.22220    0.16907   1.00
C6       0.28386    0.30235    0.11591   1.00
H2       0.49555    0.30104    0.14746   1.00
H2       0.30544    0.29853    0.14783   1.00
C6       0.48549    0.21303    0.19220   1.00
C6       0.30019    0.35542    0.09881   1.00
C6       0.41009    0.16526    0.16128   1.00
C6       0.29829    0.24620    0.10816   1.00
C6       0.53647    0.21328    0.15846   1.00
C6       0.20647    0.26838    0.12062   1.00
H2       0.53402    0.25315    0.19823   1.00
H2       0.29158    0.39640    0.10392   1.00
H2       0.44470    0.21451    0.20051   1.00
H2       0.35300    0.37835    0.09386   1.00
H2       0.48186    0.16410    0.19550   1.00
H2       0.26809    0.33180    0.08555   1.00
H2       0.40436    0.11494    0.16365   1.00
H2       0.26601    0.21931    0.09518   1.00
H2       0.36851    0.16631    0.16929   1.00
H2       0.35116    0.26808    0.10330   1.00
H2       0.40448    0.17138    0.14511   1.00
H2       0.28856    0.20892    0.12005   1.00
H2       0.58712    0.25191    0.16360   1.00
H2       0.19339    0.30606    0.12597   1.00
H2       0.53060    0.16334    0.16172   1.00
H2       0.17577    0.24404    0.10716   1.00
H2       0.53449    0.21783    0.14203   1.00
H2       0.19147    0.22935    0.13232   1.00
C4       0.69436    0.83198    0.65163   1.00
C4       0.64414    0.80564    0.66733   1.00
C3       0.71569    0.89613    0.64218   1.00
C3       0.61705    0.84456    0.67613   1.00
C3       0.72489    0.79333    0.64492   1.00
C3       0.61955    0.73792    0.67472   1.00
C2       0.79833    0.88682    0.62058   1.00
C2       0.54014    0.75127    0.69838   1.00
C3       0.76631    0.92298    0.62720   1.00
C3       0.56640    0.81821    0.69111   1.00
C3       0.77653    0.82266    0.62970   1.00
C3       0.56767    0.71286    0.68990   1.00
H1       0.69476    0.92545    0.64568   1.00
H1       0.63360    0.89376    0.67213   1.00
C5       0.70346    0.72715    0.65326   1.00
C5       0.64694    0.69730    0.66705   1.00
H1       0.77961    0.96965    0.62103   1.00
H1       0.54879    0.84879    0.69678   1.00
H1       0.79975    0.79694    0.62463   1.00
H1       0.54856    0.66480    0.69544   1.00
C6       0.74119    0.69005    0.64760   1.00
C6       0.61541    0.62338    0.67341   1.00
H2       0.79585    0.72597    0.64793   1.00
H2       0.56006    0.59977    0.67301   1.00
H2       0.73609    0.65375    0.65922   1.00
H2       0.62420    0.59340    0.66221   1.00
C6       0.71812    0.65215    0.62671   1.00
C6       0.64112    0.61406    0.69460   1.00
H2       0.71354    0.68536    0.61555   1.00
H2       0.64176    0.65123    0.70531   1.00
C6       0.76341    0.62506    0.61719   1.00
C6       0.60136    0.54200    0.70474   1.00
H2       0.66648    0.60907    0.62859   1.00
H2       0.69441    0.62752    0.69291   1.00
C6       0.83473    0.68427    0.61101   1.00
C6       0.52777    0.52348    0.71067   1.00
C6       0.77218    0.57655    0.63187   1.00
C6       0.59845    0.48568    0.69073   1.00
C6       0.72785    0.58433    0.59768   1.00
C6       0.63914    0.54297    0.72451   1.00
H2       0.83029    0.72007    0.60090   1.00
H2       0.52801    0.56284    0.72031   1.00
H2       0.86428    0.71260    0.62419   1.00
H2       0.49695    0.51778    0.69735   1.00
H2       0.86414    0.66511    0.60312   1.00
H2       0.50211    0.47539    0.71898   1.00
H2       0.79966    0.55416    0.62457   1.00
H2       0.57496    0.43651    0.69848   1.00
H2       0.80111    0.60385    0.64528   1.00
H2       0.56833    0.47964    0.67718   1.00
H2       0.72267    0.53516    0.63680   1.00
H2       0.64956    0.49819    0.68599   1.00
H2       0.72106    0.61653    0.58669   1.00
H2       0.64198    0.58150    0.73505   1.00
H2       0.75784    0.56469    0.59039   1.00
H2       0.61299    0.49376    0.73223   1.00
H2       0.67770    0.54092    0.60112   1.00
H2       0.69108    0.55442    0.72127   1.00
C4       0.13217    0.30702    0.65123   1.00
C4       0.15609    0.35881    0.66647   1.00
C3       0.14131    0.24932    0.65270   1.00
C3       0.18431    0.35298    0.68517   1.00
C3       0.09777    0.31237    0.63375   1.00
C3       0.15193    0.41903    0.66314   1.00
C2       0.08088    0.20057    0.62093   1.00
C2       0.20754    0.46497    0.69687   1.00
C3       0.11620    0.19748    0.63808   1.00
C3       0.20959    0.40451    0.69988   1.00
C3       0.07265    0.25830    0.61926   1.00
C3       0.17860    0.47047    0.67846   1.00
H1       0.16715    0.24312    0.66435   1.00
H1       0.18693    0.31077    0.68889   1.00
C5       0.08956    0.37069    0.63101   1.00
C5       0.12143    0.42654    0.64498   1.00
H1       0.12423    0.15705    0.64006   1.00
H1       0.22957    0.39731    0.71302   1.00
H1       0.04752    0.26004    0.60670   1.00
H1       0.17698    0.51421    0.67659   1.00
C6       0.04681    0.37222    0.61358   1.00
C6       0.12393    0.49345    0.64069   1.00
H2       0.00045    0.32271    0.61245   1.00
H2       0.17476    0.53537    0.64423   1.00
H2       0.02632    0.40560    0.61675   1.00
H2       0.12040    0.50092    0.62455   1.00
C6       0.08642    0.39395    0.59293   1.00
C6       0.06721    0.50082    0.65210   1.00
H2       0.11540    0.36759    0.59101   1.00
H2       0.06374    0.48380    0.66779   1.00
C6       0.04378    0.38283    0.57316   1.00
C6       0.07391    0.57305    0.65247   1.00
H2       0.12467    0.44801    0.59401   1.00
H2       0.01822    0.46502    0.64523   1.00
C6       -0.00450   0.30599    0.56872   1.00
C6       0.13694    0.62482    0.66487   1.00
C6       0.00138    0.41926    0.57435   1.00
C6       0.07831    0.60125    0.63077   1.00
C6       0.09370    0.41340    0.55498   1.00
C6       0.00958    0.56700    0.66287   1.00
H2       0.02376    0.27859    0.56812   1.00
H2       0.13592    0.60589    0.68018   1.00
H2       -0.04372   0.28211    0.58032   1.00
H2       0.18436    0.63475    0.65770   1.00
H2       -0.03046   0.29864    0.55421   1.00
H2       0.13852    0.67362    0.66622   1.00
H2       -0.02428   0.41531    0.55998   1.00
H2       0.07803    0.64930    0.63114   1.00
H2       -0.03778   0.39650    0.58603   1.00
H2       0.12518    0.61091    0.62325   1.00
H2       0.03400    0.47321    0.57789   1.00
H2       0.03522    0.56510    0.62158   1.00
H2       0.12446    0.38887    0.55333   1.00
H2       0.00445    0.54792    0.67836   1.00
H2       0.06624    0.40647    0.54077   1.00
H2       0.01208    0.61636    0.66362   1.00
H2       0.12831    0.46798    0.55703   1.00
H2       -0.03662   0.53212    0.65457   1.00
C4       0.17441    0.86761    0.65130   1.00
C4       0.20222    0.84376    0.66657   1.00
C3       0.10631    0.85535    0.65220   1.00
C3       0.16651    0.81234    0.68480   1.00
C3       0.21549    0.90517    0.63436   1.00
C3       0.26826    0.85128    0.66376   1.00
C2       0.11917    0.91870    0.62095   1.00
C2       0.25699    0.79248    0.69700   1.00
C3       0.07952    0.88034    0.63757   1.00
C3       0.19279    0.78714    0.69953   1.00
C3       0.18642    0.93006    0.61984   1.00
C3       0.29304    0.82458    0.67907   1.00
H1       0.07338    0.82721    0.66342   1.00
H1       0.12035    0.80720    0.68816   1.00
C5       0.28347    0.91667    0.63218   1.00
C5       0.30785    0.88504    0.64611   1.00
H1       0.03012    0.86997    0.63913   1.00
H1       0.16439    0.76477    0.71231   1.00
H1       0.21420    0.95736    0.60766   1.00
H1       0.33957    0.82854    0.67755   1.00
C6       0.32878    0.96258    0.61539   1.00
C6       0.37435    0.88618    0.64229   1.00
H2       0.32346    1.00776    0.61455   1.00
H2       0.36727    0.83578    0.64541   1.00
H2       0.38250    0.98472    0.61911   1.00
H2       0.38738    0.89212    0.62627   1.00
C6       0.31491    0.92564    0.59436   1.00
C6       0.43577    0.94312    0.65455   1.00
H2       0.25994    0.89500    0.59182   1.00
H2       0.41986    0.94393    0.67016   1.00
C6       0.34746    0.97112    0.57514   1.00
C6       0.50308    0.93966    0.65537   1.00
H2       0.33280    0.88898    0.59529   1.00
H2       0.44772    0.99234    0.64812   1.00
C6       0.31645    1.01737    0.57081   1.00
C6       0.49311    0.87616    0.66725   1.00
C6       0.42588    1.01605    0.57720   1.00
C6       0.53024    0.93915    0.63384   1.00
C6       0.33228    0.92377    0.55648   1.00
C6       0.55830    1.00385    0.66664   1.00
H2       0.26097    0.98726    0.56960   1.00
H2       0.47289    0.87443    0.68241   1.00
H2       0.32884    1.05490    0.58278   1.00
H2       0.45793    0.82904    0.65948   1.00
H2       0.33598    1.04533    0.55663   1.00
H2       0.54131    0.87670    0.66894   1.00
H2       0.44858    1.04385    0.56318   1.00
H2       0.57961    0.94167    0.63458   1.00
H2       0.43935    1.05357    0.58926   1.00
H2       0.49536    0.89262    0.62573   1.00
H2       0.44885    0.98484    0.58067   1.00
H2       0.53636    0.98260    0.62501   1.00
H2       0.27743    0.89136    0.55421   1.00
H2       0.54193    1.00629    0.68204   1.00
H2       0.35366    0.95325    0.54262   1.00
H2       0.60626    1.00355    0.66772   1.00
H2       0.35413    0.89073    0.55844   1.00
H2       0.56864    1.05043    0.65875   1.00
