data_IRMOF10_interpen_symm_ligand4cp_label_l_1.

_audit_creation_method             'generated by an auxiliary program of Tobunporous'

_symmetry_space_group_name_H-M     'P 1'
_symmetry_Int_Tables_number        1
_symmetry_cell_setting             triclinic

_cell_length_a                    22.6523
_cell_length_b                    22.6523
_cell_length_c                    65.9502
_cell_angle_alpha                 90.0000
_cell_angle_beta                  90.0000
_cell_angle_gamma                 120.0000

loop_
_atom_site_label
_atom_site_fract_x
_atom_site_fract_y
_atom_site_fract_z
_atom_site_occupancy
O1       0.00000    0.00000    0.57470   1.00
Zn1      0.00000    0.00000    0.54560   1.00
Zn1      0.94843    0.04287    0.58357   1.00
Zn1      0.09443    0.05157    0.58357   1.00
Zn1      0.95713    0.90557    0.58357   1.00
O2       0.93860    0.02610    0.53560   1.00
O2       0.08750    0.06140    0.53560   1.00
O2       0.97390    0.91250    0.53560   1.00
O2       0.91300    0.07160    0.56150   1.00
O2       0.00463    0.12027    0.60077   1.00
O2       0.87413    0.98077    0.60037   1.00
O2       0.15860    0.08700    0.56150   1.00
O2       0.10663    0.12587    0.60037   1.00
O2       0.11563    0.99537    0.60077   1.00
O2       0.92840    0.84140    0.56150   1.00
O2       0.87973    0.88437    0.60077   1.00
O2       0.01923    0.89337    0.60037   1.00
C1       0.91390    0.06020    0.54330   1.00
C1       0.14630    0.08610    0.54330   1.00
C1       0.93980    0.85370    0.54330   1.00
C1       0.06663    0.14397    0.60637   1.00
C1       0.85603    0.92267    0.60637   1.00
C1       0.07733    0.93337    0.60637   1.00
O1       0.00000    0.00000    0.92530   1.00
Zn1      0.00000    0.00000    0.95440   1.00
Zn1      0.04287    0.94843    0.91643   1.00
Zn1      0.05157    0.09443    0.91643   1.00
Zn1      0.90557    0.95713    0.91643   1.00
O2       0.02610    0.93860    0.96440   1.00
O2       0.06140    0.08750    0.96440   1.00
O2       0.91250    0.97390    0.96440   1.00
O2       0.07160    0.91300    0.93850   1.00
O2       0.12027    0.00463    0.89923   1.00
O2       0.98077    0.87413    0.89963   1.00
O2       0.08700    0.15860    0.93850   1.00
O2       0.12587    0.10663    0.89963   1.00
O2       0.99537    0.11563    0.89923   1.00
O2       0.84140    0.92840    0.93850   1.00
O2       0.88437    0.87973    0.89923   1.00
O2       0.89337    0.01923    0.89963   1.00
C1       0.06020    0.91390    0.95670   1.00
C1       0.08610    0.14630    0.95670   1.00
C1       0.85370    0.93980    0.95670   1.00
C1       0.14397    0.06663    0.89363   1.00
C1       0.92267    0.85603    0.89363   1.00
C1       0.93337    0.07733    0.89363   1.00
O1       0.00000    0.00000    0.42530   1.00
Zn1      0.00000    0.00000    0.45440   1.00
Zn1      0.05157    0.95713    0.41643   1.00
Zn1      0.90557    0.94843    0.41643   1.00
Zn1      0.04287    0.09443    0.41643   1.00
O2       0.06140    0.97390    0.46440   1.00
O2       0.91250    0.93860    0.46440   1.00
O2       0.02610    0.08750    0.46440   1.00
O2       0.08700    0.92840    0.43850   1.00
O2       0.99537    0.87973    0.39923   1.00
O2       0.12587    0.01923    0.39963   1.00
O2       0.84140    0.91300    0.43850   1.00
O2       0.89337    0.87413    0.39963   1.00
O2       0.88437    0.00463    0.39923   1.00
O2       0.07160    0.15860    0.43850   1.00
O2       0.12027    0.11563    0.39923   1.00
O2       0.98077    0.10663    0.39963   1.00
C1       0.08610    0.93980    0.45670   1.00
C1       0.85370    0.91390    0.45670   1.00
C1       0.06020    0.14630    0.45670   1.00
C1       0.93337    0.85603    0.39363   1.00
C1       0.14397    0.07733    0.39363   1.00
C1       0.92267    0.06663    0.39363   1.00
O1       0.00000    0.00000    0.07470   1.00
Zn1      0.00000    0.00000    0.04560   1.00
Zn1      0.95713    0.05157    0.08357   1.00
Zn1      0.94843    0.90557    0.08357   1.00
Zn1      0.09443    0.04287    0.08357   1.00
O2       0.97390    0.06140    0.03560   1.00
O2       0.93860    0.91250    0.03560   1.00
O2       0.08750    0.02610    0.03560   1.00
O2       0.92840    0.08700    0.06150   1.00
O2       0.87973    0.99537    0.10077   1.00
O2       0.01923    0.12587    0.10037   1.00
O2       0.91300    0.84140    0.06150   1.00
O2       0.87413    0.89337    0.10037   1.00
O2       0.00463    0.88437    0.10077   1.00
O2       0.15860    0.07160    0.06150   1.00
O2       0.11563    0.12027    0.10077   1.00
O2       0.10663    0.98077    0.10037   1.00
C1       0.93980    0.08610    0.04330   1.00
C1       0.91390    0.85370    0.04330   1.00
C1       0.14630    0.06020    0.04330   1.00
C1       0.85603    0.93337    0.10637   1.00
C1       0.07733    0.14397    0.10637   1.00
C1       0.06663    0.92267    0.10637   1.00
O1       0.66667    0.33333    0.90803   1.00
Zn1      0.66667    0.33333    0.87893   1.00
Zn1      0.61510    0.37620    0.91690   1.00
Zn1      0.76110    0.38490    0.91690   1.00
Zn1      0.62380    0.23890    0.91690   1.00
O2       0.60527    0.35943    0.86893   1.00
O2       0.75417    0.39473    0.86893   1.00
O2       0.64057    0.24583    0.86893   1.00
O2       0.57967    0.40493    0.89483   1.00
O2       0.67130    0.45360    0.93410   1.00
O2       0.54080    0.31410    0.93370   1.00
O2       0.82527    0.42033    0.89483   1.00
O2       0.77330    0.45920    0.93370   1.00
O2       0.78230    0.32870    0.93410   1.00
O2       0.59507    0.17473    0.89483   1.00
O2       0.54640    0.21770    0.93410   1.00
O2       0.68590    0.22670    0.93370   1.00
C1       0.58057    0.39353    0.87663   1.00
C1       0.81297    0.41943    0.87663   1.00
C1       0.60647    0.18703    0.87663   1.00
C1       0.73330    0.47730    0.93970   1.00
C1       0.52270    0.25600    0.93970   1.00
C1       0.74400    0.26670    0.93970   1.00
O1       0.66667    0.33333    0.25863   1.00
Zn1      0.66667    0.33333    0.28773   1.00
Zn1      0.70953    0.28177    0.24977   1.00
Zn1      0.71823    0.42777    0.24977   1.00
Zn1      0.57223    0.29047    0.24977   1.00
O2       0.69277    0.27193    0.29773   1.00
O2       0.72807    0.42083    0.29773   1.00
O2       0.57917    0.30723    0.29773   1.00
O2       0.73827    0.24633    0.27183   1.00
O2       0.78693    0.33797    0.23257   1.00
O2       0.64743    0.20747    0.23297   1.00
O2       0.75367    0.49193    0.27183   1.00
O2       0.79253    0.43997    0.23297   1.00
O2       0.66203    0.44897    0.23257   1.00
O2       0.50807    0.26173    0.27183   1.00
O2       0.55103    0.21307    0.23257   1.00
O2       0.56003    0.35257    0.23297   1.00
C1       0.72687    0.24723    0.29003   1.00
C1       0.75277    0.47963    0.29003   1.00
C1       0.52037    0.27313    0.29003   1.00
C1       0.81063    0.39997    0.22697   1.00
C1       0.58933    0.18937    0.22697   1.00
C1       0.60003    0.41067    0.22697   1.00
O1       0.66667    0.33333    0.75863   1.00
Zn1      0.66667    0.33333    0.78773   1.00
Zn1      0.71823    0.29047    0.74977   1.00
Zn1      0.57223    0.28177    0.74977   1.00
Zn1      0.70953    0.42777    0.74977   1.00
O2       0.72807    0.30723    0.79773   1.00
O2       0.57917    0.27193    0.79773   1.00
O2       0.69277    0.42083    0.79773   1.00
O2       0.75367    0.26173    0.77183   1.00
O2       0.66203    0.21307    0.73257   1.00
O2       0.79253    0.35257    0.73297   1.00
O2       0.50807    0.24633    0.77183   1.00
O2       0.56003    0.20747    0.73297   1.00
O2       0.55103    0.33797    0.73257   1.00
O2       0.73827    0.49193    0.77183   1.00
O2       0.78693    0.44897    0.73257   1.00
O2       0.64743    0.43997    0.73297   1.00
C1       0.75277    0.27313    0.79003   1.00
C1       0.52037    0.24723    0.79003   1.00
C1       0.72687    0.47963    0.79003   1.00
C1       0.60003    0.18937    0.72697   1.00
C1       0.81063    0.41067    0.72697   1.00
C1       0.58933    0.39997    0.72697   1.00
O1       0.66667    0.33333    0.40803   1.00
Zn1      0.66667    0.33333    0.37893   1.00
Zn1      0.62380    0.38490    0.41690   1.00
Zn1      0.61510    0.23890    0.41690   1.00
Zn1      0.76110    0.37620    0.41690   1.00
O2       0.64057    0.39473    0.36893   1.00
O2       0.60527    0.24583    0.36893   1.00
O2       0.75417    0.35943    0.36893   1.00
O2       0.59507    0.42033    0.39483   1.00
O2       0.54640    0.32870    0.43410   1.00
O2       0.68590    0.45920    0.43370   1.00
O2       0.57967    0.17473    0.39483   1.00
O2       0.54080    0.22670    0.43370   1.00
O2       0.67130    0.21770    0.43410   1.00
O2       0.82527    0.40493    0.39483   1.00
O2       0.78230    0.45360    0.43410   1.00
O2       0.77330    0.31410    0.43370   1.00
C1       0.60647    0.41943    0.37663   1.00
C1       0.58057    0.18703    0.37663   1.00
C1       0.81297    0.39353    0.37663   1.00
C1       0.52270    0.26670    0.43970   1.00
C1       0.74400    0.47730    0.43970   1.00
C1       0.73330    0.25600    0.43970   1.00
O1       0.33333    0.66667    0.24137   1.00
Zn1      0.33333    0.66667    0.21227   1.00
Zn1      0.28177    0.70953    0.25023   1.00
Zn1      0.42777    0.71823    0.25023   1.00
Zn1      0.29047    0.57223    0.25023   1.00
O2       0.27193    0.69277    0.20227   1.00
O2       0.42083    0.72807    0.20227   1.00
O2       0.30723    0.57917    0.20227   1.00
O2       0.24633    0.73827    0.22817   1.00
O2       0.33797    0.78693    0.26743   1.00
O2       0.20747    0.64743    0.26703   1.00
O2       0.49193    0.75367    0.22817   1.00
O2       0.43997    0.79253    0.26703   1.00
O2       0.44897    0.66203    0.26743   1.00
O2       0.26173    0.50807    0.22817   1.00
O2       0.21307    0.55103    0.26743   1.00
O2       0.35257    0.56003    0.26703   1.00
C1       0.24723    0.72687    0.20997   1.00
C1       0.47963    0.75277    0.20997   1.00
C1       0.27313    0.52037    0.20997   1.00
C1       0.39997    0.81063    0.27303   1.00
C1       0.18937    0.58933    0.27303   1.00
C1       0.41067    0.60003    0.27303   1.00
O1       0.33333    0.66667    0.59197   1.00
Zn1      0.33333    0.66667    0.62107   1.00
Zn1      0.37620    0.61510    0.58310   1.00
Zn1      0.38490    0.76110    0.58310   1.00
Zn1      0.23890    0.62380    0.58310   1.00
O2       0.35943    0.60527    0.63107   1.00
O2       0.39473    0.75417    0.63107   1.00
O2       0.24583    0.64057    0.63107   1.00
O2       0.40493    0.57967    0.60517   1.00
O2       0.45360    0.67130    0.56590   1.00
O2       0.31410    0.54080    0.56630   1.00
O2       0.42033    0.82527    0.60517   1.00
O2       0.45920    0.77330    0.56630   1.00
O2       0.32870    0.78230    0.56590   1.00
O2       0.17473    0.59507    0.60517   1.00
O2       0.21770    0.54640    0.56590   1.00
O2       0.22670    0.68590    0.56630   1.00
C1       0.39353    0.58057    0.62337   1.00
C1       0.41943    0.81297    0.62337   1.00
C1       0.18703    0.60647    0.62337   1.00
C1       0.47730    0.73330    0.56030   1.00
C1       0.25600    0.52270    0.56030   1.00
C1       0.26670    0.74400    0.56030   1.00
O1       0.33333    0.66667    0.09197   1.00
Zn1      0.33333    0.66667    0.12107   1.00
Zn1      0.38490    0.62380    0.08310   1.00
Zn1      0.23890    0.61510    0.08310   1.00
Zn1      0.37620    0.76110    0.08310   1.00
O2       0.39473    0.64057    0.13107   1.00
O2       0.24583    0.60527    0.13107   1.00
O2       0.35943    0.75417    0.13107   1.00
O2       0.42033    0.59507    0.10517   1.00
O2       0.32870    0.54640    0.06590   1.00
O2       0.45920    0.68590    0.06630   1.00
O2       0.17473    0.57967    0.10517   1.00
O2       0.22670    0.54080    0.06630   1.00
O2       0.21770    0.67130    0.06590   1.00
O2       0.40493    0.82527    0.10517   1.00
O2       0.45360    0.78230    0.06590   1.00
O2       0.31410    0.77330    0.06630   1.00
C1       0.41943    0.60647    0.12337   1.00
C1       0.18703    0.58057    0.12337   1.00
C1       0.39353    0.81297    0.12337   1.00
C1       0.26670    0.52270    0.06030   1.00
C1       0.47730    0.74400    0.06030   1.00
C1       0.25600    0.73330    0.06030   1.00
O1       0.33333    0.66667    0.74137   1.00
Zn1      0.33333    0.66667    0.71227   1.00
Zn1      0.29047    0.71823    0.75023   1.00
Zn1      0.28177    0.57223    0.75023   1.00
Zn1      0.42777    0.70953    0.75023   1.00
O2       0.30723    0.72807    0.70227   1.00
O2       0.27193    0.57917    0.70227   1.00
O2       0.42083    0.69277    0.70227   1.00
O2       0.26173    0.75367    0.72817   1.00
O2       0.21307    0.66203    0.76743   1.00
O2       0.35257    0.79253    0.76703   1.00
O2       0.24633    0.50807    0.72817   1.00
O2       0.20747    0.56003    0.76703   1.00
O2       0.33797    0.55103    0.76743   1.00
O2       0.49193    0.73827    0.72817   1.00
O2       0.44897    0.78693    0.76743   1.00
O2       0.43997    0.64743    0.76703   1.00
C1       0.27313    0.75277    0.70997   1.00
C1       0.24723    0.52037    0.70997   1.00
C1       0.47963    0.72687    0.70997   1.00
C1       0.18937    0.60003    0.77303   1.00
C1       0.41067    0.81063    0.77303   1.00
C1       0.39997    0.58933    0.77303   1.00
C4       0.84838    0.64204    0.48418   1.00
C4       0.87020    0.69125    0.50014   1.00
C3       0.89311    0.64521    0.46848   1.00
C3       0.93971    0.74275    0.50271   1.00
C3       0.77934    0.58726    0.48365   1.00
C3       0.82137    0.68961    0.51422   1.00
C2       0.80520    0.54068    0.45247   1.00
C2       0.91391    0.79286    0.53179   1.00
C3       0.87240    0.59596    0.45315   1.00
C3       0.96097    0.79226    0.51798   1.00
C3       0.76038    0.53795    0.46784   1.00
C3       0.84505    0.74118    0.52948   1.00
H1       0.94225    0.68380    0.46748   1.00
H1       0.97760    0.74580    0.49371   1.00
C5       0.73121    0.58296    0.49856   1.00
C5       0.75113    0.63726    0.51292   1.00
H1       0.90720    0.60100    0.44231   1.00
H1       1.01180    0.82820    0.51898   1.00
H1       0.71187    0.49801    0.46704   1.00
H1       0.81179    0.74199    0.53969   1.00
C6       0.66040    0.52094    0.49910   1.00
C6       0.69890    0.64040    0.52652   1.00
H2       0.66434    0.47525    0.49714   1.00
H2       0.70860    0.69262    0.52691   1.00
H2       0.63776    0.51278    0.51410   1.00
H2       0.64809    0.61341    0.51996   1.00
C6       0.61054    0.52425    0.48325   1.00
C6       0.69644    0.61205    0.54839   1.00
H2       0.63661    0.54217    0.46869   1.00
H2       0.74837    0.63146    0.55398   1.00
C6       0.54126    0.45726    0.47927   1.00
C6       0.65583    0.62645    0.56500   1.00
H2       0.59942    0.56369    0.48823   1.00
H2       0.67472    0.55690    0.54717   1.00
C6       0.55218    0.40173    0.46905   1.00
C6       0.69001    0.70356    0.57003   1.00
C6       0.49998    0.42830    0.49910   1.00
C6       0.58093    0.59982    0.55852   1.00
C6       0.49794    0.47389    0.46458   1.00
C6       0.65509    0.58873    0.58475   1.00
H2       0.58215    0.42097    0.45517   1.00
H2       0.74333    0.72419    0.57434   1.00
H2       0.57876    0.38454    0.47909   1.00
H2       0.68851    0.73276    0.55711   1.00
H2       0.50357    0.35706    0.46507   1.00
H2       0.66409    0.71257    0.58258   1.00
H2       0.44978    0.38447    0.49597   1.00
H2       0.55182    0.60569    0.57077   1.00
H2       0.52611    0.41140    0.50944   1.00
H2       0.57836    0.62799    0.54547   1.00
H2       0.49281    0.46687    0.50681   1.00
H2       0.55610    0.54593    0.55449   1.00
H2       0.52453    0.49391    0.45021   1.00
H2       0.70688    0.60623    0.59011   1.00
H2       0.44910    0.42849    0.46122   1.00
H2       0.62763    0.59763    0.59688   1.00
H2       0.48731    0.51189    0.47112   1.00
H2       0.63030    0.53379    0.58228   1.00
C4       0.34919    0.19256    0.48144   1.00
C4       0.29620    0.16433    0.49630   1.00
C3       0.40152    0.17516    0.48047   1.00
C3       0.28768    0.11156    0.50983   1.00
C3       0.35078    0.24016    0.46689   1.00
C3       0.24940    0.18914    0.49789   1.00
C2       0.45447    0.24704    0.45077   1.00
C2       0.19112    0.10954    0.52702   1.00
C3       0.45241    0.20124    0.46556   1.00
C3       0.23700    0.08515    0.52480   1.00
C3       0.40325    0.26524    0.45188   1.00
C3       0.19874    0.16116    0.51342   1.00
H1       0.40503    0.14342    0.49068   1.00
H1       0.31755    0.08984    0.50918   1.00
C5       0.30114    0.26181    0.46762   1.00
C5       0.25364    0.24020    0.48414   1.00
H1       0.48854    0.18647    0.46563   1.00
H1       0.23371    0.04732    0.53414   1.00
H1       0.40579    0.29881    0.44119   1.00
H1       0.16484    0.17782    0.51512   1.00
C6       0.29904    0.30647    0.45087   1.00
C6       0.20856    0.27113    0.48737   1.00
H2       0.30475    0.28720    0.43629   1.00
H2       0.20808    0.28201    0.50345   1.00
H2       0.24870    0.30091    0.44939   1.00
H2       0.23073    0.32179    0.48078   1.00
C6       0.35295    0.38388    0.45367   1.00
C6       0.13458    0.22585    0.47882   1.00
H2       0.40191    0.38922    0.45809   1.00
H2       0.11553    0.17260    0.48297   1.00
C6       0.36592    0.43247    0.43523   1.00
C6       0.07947    0.24477    0.48518   1.00
H2       0.33702    0.40275    0.46660   1.00
H2       0.13791    0.22715    0.46228   1.00
C6       0.39912    0.41590    0.41716   1.00
C6       0.06356    0.23363    0.50820   1.00
C6       0.29921    0.42909    0.42799   1.00
C6       0.10162    0.31951    0.47965   1.00
C6       0.41609    0.50683    0.44198   1.00
C6       0.01240    0.19747    0.47359   1.00
H2       0.44580    0.41677    0.42186   1.00
H2       0.04883    0.18160    0.51266   1.00
H2       0.36478    0.36574    0.41083   1.00
H2       0.10752    0.26838    0.51729   1.00
H2       0.41228    0.45292    0.40494   1.00
H2       0.02182    0.24239    0.51223   1.00
H2       0.30952    0.46662    0.41611   1.00
H2       0.06089    0.33069    0.48281   1.00
H2       0.26383    0.37899    0.42177   1.00
H2       0.14603    0.35514    0.48845   1.00
H2       0.27406    0.43916    0.44053   1.00
H2       0.11449    0.32910    0.46359   1.00
H2       0.46444    0.51219    0.44705   1.00
H2       -0.00589   0.14396    0.47713   1.00
H2       0.42712    0.54273    0.42954   1.00
H2       -0.02790   0.20844    0.47763   1.00
H2       0.39491    0.52206    0.45446   1.00
H2       0.01999    0.20400    0.45721   1.00
C4       0.80644    0.15489    0.48125   1.00
C4       0.83411    0.12971    0.49616   1.00
C3       0.83369    0.22591    0.47766   1.00
C3       0.89512    0.17330    0.50700   1.00
C3       0.74926    0.10800    0.46934   1.00
C3       0.80020    0.05835    0.50058   1.00
C2       0.75264    0.20582    0.45041   1.00
C2       0.88830    0.07931    0.52703   1.00
C3       0.80793    0.25071    0.46265   1.00
C3       0.92131    0.14904    0.52204   1.00
C3       0.72478    0.13534    0.45414   1.00
C3       0.82833    0.03576    0.51608   1.00
H1       0.87286    0.26230    0.48595   1.00
H1       0.92320    0.22421    0.50424   1.00
C5       0.71783    0.03601    0.47284   1.00
C5       0.74016    0.01160    0.48956   1.00
H1       0.83003    0.30251    0.46076   1.00
H1       0.96537    0.18314    0.52937   1.00
H1       0.68451    0.10360    0.44528   1.00
H1       0.80541    -0.01453   0.51975   1.00
C6       0.66213    -0.01321   0.45873   1.00
C6       0.70078    -0.06261   0.49586   1.00
H2       0.67696    0.00343    0.44312   1.00
H2       0.69650    -0.06556   0.51234   1.00
H2       0.65857    -0.06289   0.45861   1.00
H2       0.64760    -0.08660   0.49131   1.00
C6       0.59029    -0.02267   0.46384   1.00
C6       0.73220    -0.10564   0.48743   1.00
H2       0.59520    0.02704    0.46689   1.00
H2       0.78757    -0.07710   0.48933   1.00
C6       0.53227    -0.05997   0.44778   1.00
C6       0.70531    -0.17857   0.49651   1.00
H2       0.57333    -0.05064   0.47813   1.00
H2       0.72378    -0.11060   0.47105   1.00
C6       0.54743    -0.01782   0.42797   1.00
C6       0.72500    -0.17548   0.51919   1.00
C6       0.52087    -0.13168   0.44262   1.00
C6       0.62694    -0.22340   0.49429   1.00
C6       0.46484    -0.06897   0.45675   1.00
C6       0.73869    -0.21377   0.48474   1.00
H2       0.55683    0.03352    0.43113   1.00
H2       0.77996    -0.14326   0.52131   1.00
H2       0.59199    -0.01307   0.42017   1.00
H2       0.69981    -0.15507   0.52857   1.00
H2       0.50463    -0.04191   0.41743   1.00
H2       0.71021    -0.22615   0.52499   1.00
H2       0.47718    -0.15913   0.43254   1.00
H2       0.60934    -0.27551   0.49933   1.00
H2       0.56525    -0.12805   0.43498   1.00
H2       0.60076    -0.20340   0.50343   1.00
H2       0.51150    -0.16194   0.45636   1.00
H2       0.61157    -0.22526   0.47851   1.00
H2       0.46992    -0.01964   0.46046   1.00
H2       0.79418    -0.18447   0.48601   1.00
H2       0.42277    -0.09445   0.44601   1.00
H2       0.72180    -0.26484   0.49063   1.00
H2       0.45064    -0.09955   0.47057   1.00
H2       0.72552    -0.21872   0.46867   1.00
C4       0.64154    0.84743    0.01568   1.00
C4       0.69080    0.86899    -0.00025   1.00
C3       0.64026    0.89389    0.03001   1.00
C3       0.73754    0.93909    -0.00427   1.00
C3       0.59131    0.77688    0.01761   1.00
C3       0.69411    0.81925    -0.01282   1.00
C2       0.53989    0.80438    0.04731   1.00
C2       0.79266    0.91256    -0.03183   1.00
C3       0.59084    0.87321    0.04529   1.00
C3       0.78718    0.96033    -0.01950   1.00
C3       0.54164    0.75796    0.03332   1.00
C3       0.74566    0.84299    -0.02809   1.00
H1       0.67561    0.94441    0.03000   1.00
H1       0.73684    0.97737    0.00358   1.00
C5       0.59176    0.72731    0.00417   1.00
C5       0.64655    0.74803    -0.01005   1.00
H1       0.59254    0.90926    0.05510   1.00
H1       0.81956    1.01164    -0.02159   1.00
H1       0.50483    0.70836    0.03509   1.00
H1       0.74993    0.80915    -0.03724   1.00
C6       0.53412    0.65407    0.00501   1.00
C6       0.65522    0.69573    -0.02198   1.00
H2       0.48583    0.65347    0.00626   1.00
H2       0.70893    0.71025    -0.02200   1.00
H2       0.52787    0.62803    -0.00936   1.00
H2       0.63223    0.64682    -0.01424   1.00
C6       0.54280    0.61165    0.02235   1.00
C6       0.62572    0.68476    -0.04404   1.00
H2       0.55890    0.64183    0.03628   1.00
H2       0.64066    0.73418    -0.05094   1.00
C6       0.47980    0.54049    0.02757   1.00
C6       0.64498    0.64379    -0.05917   1.00
H2       0.58526    0.60406    0.01821   1.00
H2       0.57019    0.65885    -0.04287   1.00
C6       0.42050    0.54756    0.03671   1.00
C6       0.72222    0.68273    -0.06425   1.00
C6       0.45368    0.49349    0.00870   1.00
C6       0.62486    0.57224    -0.05079   1.00
C6       0.50175    0.50532    0.04372   1.00
C6       0.60549    0.63399    -0.07930   1.00
H2       0.43759    0.58137    0.04988   1.00
H2       0.73829    0.73392    -0.06990   1.00
H2       0.39970    0.56814    0.02570   1.00
H2       0.75300    0.68775    -0.05097   1.00
H2       0.37874    0.49818    0.04160   1.00
H2       0.73432    0.65606    -0.07585   1.00
H2       0.41297    0.44249    0.01279   1.00
H2       0.63400    0.54232    -0.06203   1.00
H2       0.43323    0.51359    -0.00261   1.00
H2       0.65468    0.57618    -0.03735   1.00
H2       0.49482    0.48880    0.00172   1.00
H2       0.57098    0.54427    -0.04669   1.00
H2       0.52001    0.53616    0.05748   1.00
H2       0.61843    0.68314    -0.08599   1.00
H2       0.45925    0.45550    0.04798   1.00
H2       0.61762    0.60596    -0.09044   1.00
H2       0.54265    0.49763    0.03801   1.00
H2       0.55049    0.60554    -0.07678   1.00
C4       0.19257    0.34918    0.01857   1.00
C4       0.16435    0.29619    0.00370   1.00
C3       0.17503    0.40141    0.01957   1.00
C3       0.11145    0.28755    -0.00979   1.00
C3       0.24031    0.35088    0.03308   1.00
C3       0.18930    0.24951    0.00207   1.00
C2       0.24704    0.45445    0.04923   1.00
C2       0.10956    0.19111    -0.02702   1.00
C3       0.20110    0.45229    0.03448   1.00
C3       0.08505    0.23688    -0.02476   1.00
C3       0.26539    0.40334    0.04809   1.00
C3       0.16131    0.19885    -0.01345   1.00
H1       0.14318    0.40483    0.00938   1.00
H1       0.08964    0.31733    -0.00912   1.00
C5       0.26211    0.30136    0.03231   1.00
C5       0.24049    0.25386    0.01579   1.00
H1       0.18623    0.48834    0.03443   1.00
H1       0.04712    0.23350    -0.03408   1.00
H1       0.29905    0.40596    0.05876   1.00
H1       0.17806    0.16503    -0.01518   1.00
C6       0.30692    0.29936    0.04903   1.00
C6       0.27155    0.20891    0.01252   1.00
H2       0.28771    0.30501    0.06363   1.00
H2       0.28235    0.20847    -0.00357   1.00
H2       0.30149    0.24907    0.05050   1.00
H2       0.32226    0.23118    0.01909   1.00
C6       0.38428    0.35339    0.04620   1.00
C6       0.22645    0.13491    0.02107   1.00
H2       0.38948    0.40231    0.04179   1.00
H2       0.17315    0.11576    0.01695   1.00
C6       0.43300    0.36646    0.06461   1.00
C6       0.24548    0.07992    0.01468   1.00
H2       0.40314    0.33754    0.03325   1.00
H2       0.22784    0.13824    0.03761   1.00
C6       0.41644    0.39957    0.08270   1.00
C6       0.23424    0.06401    -0.00834   1.00
C6       0.42983    0.29982    0.07183   1.00
C6       0.32029    0.10222    0.02017   1.00
C6       0.50730    0.41675    0.05783   1.00
C6       0.19836    0.01281    0.02628   1.00
H2       0.41717    0.44620    0.07802   1.00
H2       0.18215    0.04917    -0.01277   1.00
H2       0.36635    0.36515    0.08905   1.00
H2       0.26887    0.10800    -0.01744   1.00
H2       0.45355    0.41280    0.09490   1.00
H2       0.24309    0.02235    -0.01239   1.00
H2       0.46745    0.31021    0.08368   1.00
H2       0.33157    0.06157    0.01698   1.00
H2       0.37979    0.26436    0.07806   1.00
H2       0.35581    0.14667    0.01135   1.00
H2       0.43990    0.27473    0.05927   1.00
H2       0.32996    0.11510    0.03622   1.00
H2       0.51251    0.46506    0.05277   1.00
H2       0.14481    -0.00559   0.02276   1.00
H2       0.54329    0.42785    0.07024   1.00
H2       0.20942    -0.02741   0.02221   1.00
H2       0.52252    0.39564    0.04533   1.00
H2       0.20497    0.02041    0.04265   1.00
C4       0.15489    0.80644    0.01875   1.00
C4       0.12971    0.83411    0.00384   1.00
C3       0.22591    0.83369    0.02234   1.00
C3       0.17330    0.89512    -0.00700   1.00
C3       0.10800    0.74926    0.03066   1.00
C3       0.05835    0.80020    -0.00058   1.00
C2       0.20582    0.75264    0.04959   1.00
C2       0.07931    0.88830    -0.02703   1.00
C3       0.25071    0.80793    0.03735   1.00
C3       0.14904    0.92131    -0.02205   1.00
C3       0.13534    0.72478    0.04586   1.00
C3       0.03576    0.82833    -0.01608   1.00
H1       0.26230    0.87286    0.01405   1.00
H1       0.22421    0.92320    -0.00424   1.00
C5       0.03601    0.71783    0.02716   1.00
C5       0.01160    0.74017    0.01044   1.00
H1       0.30251    0.83002    0.03924   1.00
H1       0.18314    0.96537    -0.02937   1.00
H1       0.10360    0.68452    0.05472   1.00
H1       -0.01453   0.80542    -0.01975   1.00
C6       -0.01321   0.66214    0.04127   1.00
C6       -0.06261   0.70079    0.00414   1.00
H2       0.00343    0.67697    0.05688   1.00
H2       -0.06557   0.69650    -0.01234   1.00
H2       -0.06289   0.65858    0.04139   1.00
H2       -0.08661   0.64760    0.00869   1.00
C6       -0.02267   0.59030    0.03617   1.00
C6       -0.10564   0.73221    0.01257   1.00
H2       0.02704    0.59520    0.03311   1.00
H2       -0.07709   0.78758    0.01067   1.00
C6       -0.05997   0.53227    0.05223   1.00
C6       -0.17857   0.70532    0.00349   1.00
H2       -0.05065   0.57334    0.02187   1.00
H2       -0.11059   0.72380    0.02895   1.00
C6       -0.01782   0.54743    0.07204   1.00
C6       -0.17548   0.72501    -0.01918   1.00
C6       -0.13168   0.52088    0.05738   1.00
C6       -0.22340   0.62695    0.00571   1.00
C6       -0.06898   0.46485    0.04326   1.00
C6       -0.21377   0.73870    0.01526   1.00
H2       0.03352    0.55683    0.06887   1.00
H2       -0.14326   0.77997    -0.02131   1.00
H2       -0.01307   0.59200    0.07983   1.00
H2       -0.15507   0.69981    -0.02857   1.00
H2       -0.04191   0.50464    0.08257   1.00
H2       -0.22615   0.71022    -0.02499   1.00
H2       -0.15913   0.47719    0.06746   1.00
H2       -0.27551   0.60936    0.00067   1.00
H2       -0.12805   0.56526    0.06502   1.00
H2       -0.20340   0.60077    -0.00342   1.00
H2       -0.16194   0.51151    0.04364   1.00
H2       -0.22526   0.61159    0.02149   1.00
H2       -0.01965   0.46992    0.03954   1.00
H2       -0.18446   0.79419    0.01400   1.00
H2       -0.09445   0.42278    0.05399   1.00
H2       -0.26483   0.72182    0.00937   1.00
H2       -0.09956   0.45065    0.02943   1.00
H2       -0.21871   0.72554    0.03134   1.00
C4       0.15311    0.34798    0.51887   1.00
C4       0.13168    0.29613    0.50371   1.00
C3       0.10609    0.36011    0.52990   1.00
C3       0.06164    0.24825    0.50004   1.00
C3       0.22408    0.38985    0.52333   1.00
C3       0.18151    0.29116    0.49166   1.00
C2       0.19611    0.45057    0.55021   1.00
C2       0.08815    0.19338    0.47241   1.00
C3       0.12677    0.40957    0.54516   1.00
C3       0.04040    0.19862    0.48481   1.00
C3       0.24300    0.43941    0.53907   1.00
C3       0.15774    0.24012    0.47623   1.00
H1       0.05510    0.33391    0.52712   1.00
H1       0.02345    0.24720    0.50842   1.00
C5       0.27403    0.38197    0.51215   1.00
C5       0.25286    0.33609    0.49522   1.00
H1       0.09032    0.41562    0.55262   1.00
H1       -0.01089   0.16577    0.48287   1.00
H1       0.29293    0.46983    0.54278   1.00
H1       0.19160    0.23530    0.46725   1.00
C6       0.34820    0.42151    0.51848   1.00
C6       0.30477    0.33506    0.48097   1.00
H2       0.35135    0.41971    0.53494   1.00
H2       0.28763    0.33260    0.46539   1.00
H2       0.37585    0.39612    0.51372   1.00
H2       0.35238    0.38344    0.48100   1.00
C6       0.38634    0.49665    0.51037   1.00
C6       0.32024    0.27630    0.48571   1.00
H2       0.35417    0.51952    0.51248   1.00
H2       0.27248    0.22902    0.48862   1.00
C6       0.45816    0.54662    0.51955   1.00
C6       0.36103    0.26073    0.46946   1.00
H2       0.39186    0.49461    0.49396   1.00
H2       0.34836    0.28862    0.50000   1.00
C6       0.45338    0.56104    0.54232   1.00
C6       0.31959    0.23220    0.44959   1.00
C6       0.50791    0.51886    0.51704   1.00
C6       0.43033    0.32485    0.46448   1.00
C6       0.48868    0.61564    0.50808   1.00
C6       0.37566    0.20551    0.47808   1.00
H2       0.41775    0.57967    0.54464   1.00
H2       0.26987    0.18749    0.45263   1.00
H2       0.43620    0.51534    0.55149   1.00
H2       0.31107    0.27005    0.44203   1.00
H2       0.50293    0.59948    0.54821   1.00
H2       0.34642    0.21709    0.43890   1.00
H2       0.55909    0.55617    0.52216   1.00
H2       0.46042    0.31237    0.45425   1.00
H2       0.49122    0.47266    0.52597   1.00
H2       0.42289    0.36368    0.45707   1.00
H2       0.51111    0.50694    0.50119   1.00
H2       0.45993    0.34680    0.47827   1.00
H2       0.45578    0.63785    0.50955   1.00
H2       0.32824    0.15876    0.48166   1.00
H2       0.53880    0.65249    0.51405   1.00
H2       0.40373    0.19253    0.46720   1.00
H2       0.49462    0.60904    0.49195   1.00
H2       0.40601    0.22319    0.49193   1.00
C4       0.65135    0.80677    0.51871   1.00
C4       0.70265    0.83710    0.50340   1.00
C3       0.65076    0.75991    0.53324   1.00
C3       0.76072    0.82834    0.50286   1.00
C3       0.59816    0.82326    0.51972   1.00
C3       0.69654    0.87799    0.48793   1.00
C2       0.54955    0.74797    0.55028   1.00
C2       0.80472    0.89564    0.47188   1.00
C3       0.60168    0.73160    0.54862   1.00
C3       0.81008    0.85638    0.48755   1.00
C3       0.54935    0.79362    0.53569   1.00
C3       0.74772    0.90533    0.47254   1.00
H1       0.68558    0.74406    0.53308   1.00
H1       0.76969    0.80183    0.51369   1.00
C5       0.59442    0.86788    0.50499   1.00
C5       0.64071    0.89099    0.48815   1.00
H1       0.60422    0.69834    0.55869   1.00
H1       0.85062    0.84796    0.48797   1.00
H1       0.51104    0.80447    0.53700   1.00
H1       0.74489    0.93428    0.46121   1.00
C6       0.54228    0.89058    0.50752   1.00
C6       0.63094    0.92819    0.47054   1.00
H2       0.54134    0.90393    0.52335   1.00
H2       0.63875    0.90820    0.45639   1.00
H2       0.55817    0.93891    0.49997   1.00
H2       0.57810    0.91561    0.46909   1.00
C6       0.46948    0.83662    0.49977   1.00
C6       0.67742    1.00761    0.47188   1.00
H2       0.45711    0.78584    0.50494   1.00
H2       0.72903    1.02043    0.47627   1.00
C6       0.40861    0.84752    0.50565   1.00
C6       0.68300    1.05021    0.45253   1.00
H2       0.47170    0.83478    0.48324   1.00
H2       0.65868    1.02544    0.48438   1.00
C6       0.39488    0.83991    0.52882   1.00
C6       0.71941    1.03586    0.43489   1.00
C6       0.42112    0.91820    0.49868   1.00
C6       0.61203    1.03608    0.44527   1.00
C6       0.34323    0.79204    0.49491   1.00
C6       0.72620    1.12714    0.45787   1.00
H2       0.38695    0.79093    0.53428   1.00
H2       0.76926    1.04430    0.43964   1.00
H2       0.43730    0.88004    0.53727   1.00
H2       0.68962    0.98353    0.42951   1.00
H2       0.34952    0.84288    0.53260   1.00
H2       0.72728    1.06918    0.42198   1.00
H2       0.37643    0.92337    0.50154   1.00
H2       0.61682    1.06953    0.43268   1.00
H2       0.46387    0.95915    0.50683   1.00
H2       0.58113    0.98367    0.44000   1.00
H2       0.43233    0.92545    0.48248   1.00
H2       0.58471    1.04442    0.45754   1.00
H2       0.33166    0.74101    0.49949   1.00
H2       0.77721    1.14001    0.46290   1.00
H2       0.29909    0.79726    0.49866   1.00
H2       0.73195    1.15907    0.44477   1.00
H2       0.34924    0.79565    0.47846   1.00
H2       0.70237    1.14077    0.46998   1.00
C4       0.19331    0.84471    0.51872   1.00
C4       0.16297    0.86570    0.50342   1.00
C3       0.24093    0.89115    0.53307   1.00
C3       0.17253    0.93283    0.50273   1.00
C3       0.17605    0.77483    0.51991   1.00
C3       0.12124    0.81840    0.48813   1.00
C2       0.25216    0.80172    0.55028   1.00
C2       0.10438    0.90922    0.47191   1.00
C3       0.26927    0.87038    0.54845   1.00
C3       0.14447    0.95414    0.48741   1.00
C3       0.20574    0.75568    0.53587   1.00
C3       0.09390    0.84225    0.47273   1.00
H1       0.25734    0.94194    0.53277   1.00
H1       0.19969    0.96856    0.51344   1.00
C5       0.13061    0.72625    0.50536   1.00
C5       0.10742    0.74931    0.48852   1.00
H1       0.30310    0.90632    0.55838   1.00
H1       0.15349    1.00332    0.48772   1.00
H1       0.19435    0.70638    0.53730   1.00
H1       0.06437    0.81026    0.46152   1.00
C6       0.10716    0.65131    0.50809   1.00
C6       0.06929    0.70193    0.47108   1.00
H2       0.09422    0.63763    0.52398   1.00
H2       0.08906    0.72917    0.45682   1.00
H2       0.05848    0.61904    0.50070   1.00
H2       0.08121    0.66119    0.46969   1.00
C6       0.16025    0.63136    0.50029   1.00
C6       -0.01000   0.66987    0.47262   1.00
H2       0.21137    0.66953    0.50529   1.00
H2       -0.02207   0.70925    0.47695   1.00
C6       0.14867    0.55947    0.50634   1.00
C6       -0.05341   0.63252    0.45343   1.00
H2       0.16161    0.63486    0.48375   1.00
H2       -0.02778   0.63373    0.48523   1.00
C6       0.15689    0.55399    0.52951   1.00
C6       -0.03906   0.68283    0.43565   1.00
C6       0.07747    0.50161    0.49962   1.00
C6       -0.04037   0.57488    0.44626   1.00
C6       0.20330    0.54840    0.49553   1.00
C6       -0.13010   0.59978    0.45897   1.00
H2       0.20626    0.59484    0.53480   1.00
H2       -0.04674   0.72478    0.44032   1.00
H2       0.11733    0.55711    0.53803   1.00
H2       0.01305    0.70464    0.43014   1.00
H2       0.15342    0.50551    0.53340   1.00
H2       -0.07290   0.65722    0.42285   1.00
H2       0.07178    0.45160    0.50260   1.00
H2       -0.07437   0.54605    0.43379   1.00
H2       0.03709    0.50426    0.50783   1.00
H2       0.01181    0.59565    0.44086   1.00
H2       0.06981    0.50516    0.48343   1.00
H2       -0.04873   0.53952    0.45862   1.00
H2       0.25466    0.58761    0.49993   1.00
H2       -0.14222   0.63851    0.46394   1.00
H2       0.19759    0.49893    0.49940   1.00
H2       -0.16258   0.57341    0.44598   1.00
H2       0.19922    0.55031    0.47907   1.00
H2       -0.14375   0.56266    0.47119   1.00
C4       0.35830    0.15224    0.98427   1.00
C4       0.30705    0.12663    0.99968   1.00
C3       0.41545    0.21964    0.98481   1.00
C3       0.31300    0.16390    1.01771   1.00
C3       0.35296    0.10956    0.96757   1.00
C3       0.24726    0.06129    0.99723   1.00
C2       0.46372    0.20297    0.95365   1.00
C2       0.20191    0.07637    1.03039   1.00
C3       0.46679    0.24423    0.97004   1.00
C3       0.26196    0.13980    1.03257   1.00
C3       0.40653    0.13642    0.95290   1.00
C3       0.19631    0.03876    1.01266   1.00
H1       0.42158    0.25362    0.99584   1.00
H1       0.35495    0.20965    1.02083   1.00
C5       0.29514    0.04223    0.96575   1.00
C5       0.23969    0.02017    0.97980   1.00
H1       0.50684    0.29324    0.97133   1.00
H1       0.26921    0.16925    1.04519   1.00
H1       0.40479    0.10746    0.94088   1.00
H1       0.15288    -0.00720   1.01139   1.00
C6       0.29373    -0.00486   0.94922   1.00
C6       0.17314    -0.04547   0.97634   1.00
H2       0.34353    -0.00117   0.94837   1.00
H2       0.13088    -0.03666   0.97941   1.00
H2       0.26104    -0.05817   0.95323   1.00
H2       0.16526    -0.05947   0.96039   1.00
C6       0.27088    0.00869    0.92811   1.00
C6       0.16708    -0.10696   0.98894   1.00
H2       0.29652    0.06357    0.92527   1.00
H2       0.18453    -0.09038   1.00446   1.00
C6       0.28193    -0.02601   0.90907   1.00
C6       0.09533    -0.17296   0.99012   1.00
H2       0.21669    -0.00763   0.92912   1.00
H2       0.20314    -0.12073   0.98259   1.00
C6       0.35878    0.00269    0.90460   1.00
C6       0.04339    -0.16033   1.00192   1.00
C6       0.24650    -0.10443   0.91157   1.00
C6       0.06658    -0.20098   0.96874   1.00
C6       0.25024    -0.01068   0.89033   1.00
C6       0.10268    -0.22866   1.00170   1.00
H2       0.38550    0.05814    0.90308   1.00
H2       0.06269    -0.13946   1.01698   1.00
H2       0.38346    -0.00998   0.91665   1.00
H2       0.03257    -0.12469   0.99395   1.00
H2       0.36600    -0.01831   0.89053   1.00
H2       -0.00500   -0.20762   1.00388   1.00
H2       0.25035    -0.12854   0.89768   1.00
H2       0.01893    -0.24954   0.96974   1.00
H2       0.27007    -0.11817   0.92371   1.00
H2       0.05603    -0.16566   0.96043   1.00
H2       0.19258    -0.12577   0.91516   1.00
H2       0.10282    -0.20897   0.95995   1.00
H2       0.27404    0.04417    0.88776   1.00
H2       0.12218    -0.21168   1.01701   1.00
H2       0.25708    -0.03353   0.87659   1.00
H2       0.05369    -0.27572   1.00304   1.00
H2       0.19562    -0.03095   0.89240   1.00
H2       0.13773    -0.24084   0.99388   1.00
C4       0.80759    0.65065    0.98148   1.00
C4       0.83774    0.70157    0.99690   1.00
C3       0.77070    0.65671    0.96487   1.00
C3       0.83932    0.76517    0.99568   1.00
C3       0.81397    0.59100    0.98248   1.00
C3       0.86780    0.68934    1.01430   1.00
C2       0.74945    0.54931    0.94976   1.00
C2       0.89573    0.80322    1.02854   1.00
C3       0.74277    0.60783    0.94942   1.00
C3       0.86709    0.81438    1.01104   1.00
C3       0.78510    0.54260    0.96638   1.00
C3       0.89521    0.74062    1.02966   1.00
H1       0.76216    0.69654    0.96348   1.00
H1       0.82096    0.77840    0.98348   1.00
C5       0.84805    0.58068    0.99928   1.00
C5       0.87031    0.62748    1.01599   1.00
H1       0.71698    0.61532    0.93781   1.00
H1       0.86641    0.85910    1.00928   1.00
H1       0.78898    0.49977    0.96649   1.00
H1       0.91660    0.73359    1.04232   1.00
C6       0.86076    0.52108    0.99905   1.00
C6       0.89563    0.61206    1.03542   1.00
H2       0.87849    0.51701    0.98403   1.00
H2       0.87368    0.62444    1.04831   1.00
H2       0.90411    0.53076    1.00846   1.00
H2       0.87499    0.55759    1.03748   1.00
C6       0.79720    0.45226    1.00584   1.00
C6       0.97536    0.64897    1.03680   1.00
H2       0.75134    0.44688    0.99859   1.00
H2       0.99711    0.70192    1.03187   1.00
C6       0.79907    0.38501    1.00194   1.00
C6       1.00746    0.64921    1.05785   1.00
H2       0.78978    0.45587    1.02207   1.00
H2       0.99293    0.62534    1.02569   1.00
C6       0.79854    0.37021    0.97895   1.00
C6       0.99405    0.69151    1.07381   1.00
C6       0.86220    0.38744    1.01192   1.00
C6       0.98024    0.57594    1.06602   1.00
C6       0.73427    0.32455    1.01145   1.00
C6       1.08588    0.68280    1.05523   1.00
H2       0.75515    0.36927    0.97139   1.00
H2       1.01170    0.74324    1.06836   1.00
H2       0.84485    0.40868    0.97151   1.00
H2       0.93999    0.66833    1.07733   1.00
H2       0.79507    0.32096    0.97640   1.00
H2       1.02056    0.69532    1.08800   1.00
H2       0.86048    0.33862    1.01036   1.00
H2       1.00648    0.57641    1.07996   1.00
H2       0.90919    0.42617    1.00481   1.00
H2       0.92597    0.55158    1.06945   1.00
H2       0.86457    0.39921    1.02804   1.00
H2       0.98776    0.54465    1.05489   1.00
H2       0.68810    0.32011    1.00476   1.00
H2       1.10782    0.73505    1.04968   1.00
H2       0.73302    0.27625    1.00900   1.00
H2       1.11072    0.68458    1.06959   1.00
H2       0.73241    0.33135    1.02778   1.00
H2       1.09869    0.65441    1.04443   1.00
C4       0.84476    0.19334    0.98128   1.00
C4       0.86576    0.16300    0.99657   1.00
C3       0.89126    0.24124    0.96699   1.00
C3       0.93299    0.17285    0.99733   1.00
C3       0.77480    0.17579    0.98002   1.00
C3       0.81836    0.12095    1.01180   1.00
C2       0.80177    0.25221    0.94972   1.00
C2       0.90927    0.10439    1.02807   1.00
C3       0.87049    0.26958    0.95162   1.00
C3       0.95430    0.14478    1.01263   1.00
C3       0.75567    0.20551    0.96406   1.00
C3       0.84220    0.09362    1.02719   1.00
H1       0.94208    0.25785    0.96734   1.00
H1       0.96881    0.20024    0.98666   1.00
C5       0.72615    0.13006    0.99450   1.00
C5       0.74917    0.10684    1.01135   1.00
H1       0.90648    0.30363    0.94173   1.00
H1       1.00356    0.15402    1.01237   1.00
H1       0.70632    0.19393    0.96259   1.00
H1       0.81014    0.06387    1.03836   1.00
C6       0.65118    0.10633    0.99170   1.00
C6       0.70165    0.06837    1.02873   1.00
H2       0.63773    0.09355    0.97579   1.00
H2       0.72868    0.08806    1.04301   1.00
H2       0.61897    0.05753    0.99904   1.00
H2       0.66073    0.08004    1.03009   1.00
C6       0.63082    0.15911    0.99952   1.00
C6       0.66991    -0.01086   1.02711   1.00
H2       0.66890    0.21035    0.99458   1.00
H2       0.70949    -0.02266   1.02280   1.00
C6       0.55889    0.14728    0.99340   1.00
C6       0.63244    -0.05458   1.04624   1.00
H2       0.63412    0.16029    1.01606   1.00
H2       0.63393    -0.02863   1.01446   1.00
C6       0.55365    0.15572    0.97023   1.00
C6       0.68258    -0.04022   1.06407   1.00
C6       0.50116    0.07589    1.00004   1.00
C6       0.57451    -0.04192   1.05338   1.00
C6       0.54740    0.20160    1.00424   1.00
C6       0.60007    -0.13117   1.04063   1.00
H2       0.59443    0.20524    0.96501   1.00
H2       0.72473    -0.04763   1.05942   1.00
H2       0.55708    0.11638    0.96170   1.00
H2       0.70412    0.01180    1.06963   1.00
H2       0.50512    0.15208    0.96631   1.00
H2       0.65691    -0.07425   1.07682   1.00
H2       0.45109    0.07001    0.99701   1.00
H2       0.54562    -0.07613   1.06579   1.00
H2       0.50411    0.03572    0.99179   1.00
H2       0.59501    0.01016    1.05883   1.00
H2       0.50455    0.06808    1.01623   1.00
H2       0.53925    -0.05029   1.04098   1.00
H2       0.58650    0.25307    0.99990   1.00
H2       0.63900    -0.14302   1.03567   1.00
H2       0.49788    0.19571    1.00033   1.00
H2       0.57362    -0.16385   1.05357   1.00
H2       0.54913    0.19734    1.02069   1.00
H2       0.56308    -0.14482   1.02837   1.00
C4       0.50985    0.98404    0.81479   1.00
C4       0.53457    1.03705    0.82965   1.00
C3       0.44044    0.93083    0.81410   1.00
C3       0.49041    1.04463    0.84347   1.00
C3       0.55559    0.98336    0.79996   1.00
C3       0.60601    1.08482    0.83095   1.00
C2       0.45907    0.87870    0.78414   1.00
C2       0.58483    1.14218    0.86036   1.00
C3       0.41564    0.87991    0.79920   1.00
C3       0.51468    1.09533    0.85843   1.00
C3       0.52821    0.93081    0.78498   1.00
C3       0.62869    1.13547    0.84647   1.00
H1       0.40545    0.92668    0.82451   1.00
H1       0.43889    1.01401    0.84304   1.00
C5       0.62661    1.03393    0.80041   1.00
C5       0.65266    1.08153    0.81691   1.00
H1       0.36498    0.84311    0.79948   1.00
H1       0.48022    1.09792    0.86798   1.00
H1       0.55903    0.92889    0.77410   1.00
H1       0.67916    1.17006    0.84796   1.00
C6       0.67291    1.03690    0.78339   1.00
C6       0.72867    1.12771    0.81980   1.00
H2       0.64704    1.03069    0.76894   1.00
H2       0.74098    1.12847    0.83581   1.00
H2       0.71703    1.08763    0.78178   1.00
H2       0.75756    1.10632    0.81298   1.00
C6       0.69788    0.98404    0.78589   1.00
C6       0.75571    1.20147    0.81129   1.00
H2       0.65505    0.93471    0.79044   1.00
H2       0.72099    1.21964    0.81569   1.00
C6       0.73315    0.97186    0.76721   1.00
C6       0.82968    1.25755    0.81735   1.00
H2       0.73338    1.00056    0.79866   1.00
H2       0.75285    1.19807    0.79475   1.00
C6       0.68262    0.93793    0.74935   1.00
C6       0.83539    1.27346    0.84039   1.00
C6       0.79537    1.03914    0.75978   1.00
C6       0.88295    1.23668    0.81145   1.00
C6       0.75895    0.92273    0.77367   1.00
C6       0.84768    1.32428    0.80583   1.00
H2       0.63754    0.89081    0.75419   1.00
H2       0.79765    1.28731    0.84511   1.00
H2       0.66561    0.97156    0.74321   1.00
H2       0.82746    1.22981    0.84941   1.00
H2       0.70634    0.92535    0.73695   1.00
H2       0.88575    1.31582    0.84423   1.00
H2       0.82245    1.02945    0.74771   1.00
H2       0.93471    1.27805    0.81441   1.00
H2       0.77946    1.07383    0.75375   1.00
H2       0.87545    1.19257    0.82018   1.00
H2       0.83109    1.06480    0.77217   1.00
H2       0.87905    1.22380    0.79537   1.00
H2       0.71678    0.87402    0.77887   1.00
H2       0.81193    1.34168    0.80964   1.00
H2       0.78364    0.91227    0.76106   1.00
H2       0.89885    1.36522    0.80968   1.00
H2       0.79595    0.94447    0.78599   1.00
H2       0.84590    1.31668    0.78944   1.00
C4       0.01513    0.52690    0.81458   1.00
C4       -0.03772   0.49923    0.82949   1.00
C3       0.05887    0.49962    0.81098   1.00
C3       -0.05518   0.43820    0.84033   1.00
C3       0.02543    0.58409    0.80268   1.00
C3       -0.07516   0.53315    0.83391   1.00
C2       0.11984    0.58069    0.78374   1.00
C2       -0.14232   0.44503    0.86036   1.00
C3       0.10943    0.52538    0.79598   1.00
C3       -0.10561   0.41201    0.85537   1.00
C3       0.07724    0.60857    0.78747   1.00
C3       -0.12588   0.50502    0.84942   1.00
H1       0.05608    0.46044    0.81927   1.00
H1       -0.03236   0.41011    0.83756   1.00
C5       -0.01511   0.61554    0.80618   1.00
C5       -0.06186   0.59320    0.82290   1.00
H1       0.13912    0.50328    0.79408   1.00
H1       -0.11560   0.36794    0.86269   1.00
H1       0.08579    0.64885    0.77862   1.00
H1       -0.15325   0.52795    0.85309   1.00
C6       -0.00862   0.67125    0.79208   1.00
C6       -0.09666   0.63259    0.82921   1.00
H2       -0.00681   0.65643    0.77646   1.00
H2       -0.09533   0.63687    0.84569   1.00
H2       -0.05473   0.67483    0.79196   1.00
H2       -0.06746   0.68578    0.82466   1.00
C6       0.05378    0.74308    0.79719   1.00
C6       -0.17110   0.60121    0.82078   1.00
H2       0.09858    0.73816    0.80024   1.00
H2       -0.19795   0.54584    0.82267   1.00
C6       0.07452    0.80112    0.78113   1.00
C6       -0.21713   0.62811    0.82987   1.00
H2       0.04277    0.76003    0.81148   1.00
H2       -0.16765   0.60964    0.80440   1.00
C6       0.10150    0.78597    0.76132   1.00
C6       -0.23373   0.60841    0.85254   1.00
C6       0.01422    0.81255    0.77598   1.00
C6       -0.18357   0.70648    0.82765   1.00
C6       0.13296    0.86853    0.79011   1.00
C6       -0.28571   0.59476    0.81810   1.00
H2       0.14343    0.77655    0.76448   1.00
H2       -0.25650   0.55344    0.85466   1.00
H2       0.06167    0.74141    0.75352   1.00
H2       -0.18813   0.63358    0.86192   1.00
H2       0.12022    0.82878    0.75079   1.00
H2       -0.26960   0.62320    0.85835   1.00
H2       0.03047    0.85625    0.76591   1.00
H2       -0.21807   0.72409    0.83270   1.00
H2       -0.02654   0.76818    0.76834   1.00
H2       -0.13739   0.73265    0.83679   1.00
H2       -0.00666   0.82192    0.78973   1.00
H2       -0.17006   0.72186    0.81187   1.00
H2       0.17720    0.86343    0.79382   1.00
H2       -0.31191   0.53927    0.81935   1.00
H2       0.14957    0.91061    0.77937   1.00
H2       -0.31988   0.61166    0.82399   1.00
H2       0.11658    0.88273    0.80394   1.00
H2       -0.27749   0.60794    0.80202   1.00
C4       0.47314    0.48828    0.81458   1.00
C4       0.50083    0.46311    0.82949   1.00
C3       0.50012    0.55930    0.81108   1.00
C3       0.56162    0.50675    0.84042   1.00
C3       0.41623    0.44137    0.80259   1.00
C3       0.46717    0.39170    0.83382   1.00
C2       0.41933    0.53920    0.78375   1.00
C2       0.55504    0.41271    0.86036   1.00
C3       0.47435    0.58410    0.79608   1.00
C3       0.58781    0.48250    0.85546   1.00
C3       0.39174    0.46871    0.78740   1.00
C3       0.49529    0.36910    0.84933   1.00
H1       0.53908    0.59568    0.81943   1.00
H1       0.58953    0.55772    0.83772   1.00
C5       0.38507    0.36936    0.80600   1.00
C5       0.40738    0.34490    0.82272   1.00
H1       0.49624    0.63590    0.79425   1.00
H1       0.63171    0.51664    0.86285   1.00
H1       0.35166    0.43697    0.77848   1.00
H1       0.47255    0.31877    0.85293   1.00
C6       0.32969    0.32016    0.79180   1.00
C6       0.36823    0.27059    0.82892   1.00
H2       0.34468    0.33707    0.77622   1.00
H2       0.36372    0.26738    0.84539   1.00
H2       0.32640    0.27061    0.79164   1.00
H2       0.31509    0.24642    0.82431   1.00
C6       0.25763    0.31025    0.79685   1.00
C6       0.40009    0.22798    0.82047   1.00
H2       0.26223    0.35981    0.79995   1.00
H2       0.45542    0.25672    0.82244   1.00
C6       0.19987    0.27296    0.78071   1.00
C6       0.37342    0.15497    0.82947   1.00
H2       0.24059    0.28205    0.81110   1.00
H2       0.39190    0.22322    0.80408   1.00
C6       0.21511    0.31537    0.76095   1.00
C6       0.39283    0.15783    0.85216   1.00
C6       0.18892    0.20147    0.77548   1.00
C6       0.29511    0.10986    0.82715   1.00
C6       0.13219    0.26348    0.78962   1.00
C6       0.40724    0.12023    0.81769   1.00
H2       0.22420    0.36657    0.76417   1.00
H2       0.44774    0.19024    0.85436   1.00
H2       0.25988    0.32046    0.75320   1.00
H2       0.36733    0.17791    0.86154   1.00
H2       0.17247    0.29125    0.75036   1.00
H2       0.37821    0.10714    0.85791   1.00
H2       0.14541    0.17400    0.76534   1.00
H2       0.27769    0.05772    0.83213   1.00
H2       0.23351    0.20545    0.76788   1.00
H2       0.26861    0.12952    0.83628   1.00
H2       0.17951    0.17104    0.78919   1.00
H2       0.27992    0.10815    0.81136   1.00
H2       0.13695    0.31264    0.79339   1.00
H2       0.46271    0.14975    0.81902   1.00
H2       0.09029    0.23799    0.77883   1.00
H2       0.39052    0.06913    0.82353   1.00
H2       0.11793    0.23270    0.80341   1.00
H2       0.39429    0.11546    0.80160   1.00
C4       0.30703    0.17449    0.34877   1.00
C4       0.35727    0.19513    0.33315   1.00
C3       0.27069    0.20960    0.35269   1.00
C3       0.36956    0.24766    0.31901   1.00
C3       0.29197    0.11670    0.36112   1.00
C3       0.39716    0.16247    0.33135   1.00
C2       0.20304    0.13080    0.37970   1.00
C2       0.46115    0.23921    0.30217   1.00
C3       0.22002    0.18832    0.36760   1.00
C3       0.42010    0.26936    0.30405   1.00
C3       0.23975    0.09647    0.37607   1.00
C3       0.44839    0.18633    0.31597   1.00
H1       0.28014    0.25235    0.34499   1.00
H1       0.34177    0.27168    0.31893   1.00
C5       0.32888    0.08102    0.35846   1.00
C5       0.38519    0.10733    0.34460   1.00
H1       0.19548    0.21568    0.36962   1.00
H1       0.42661    0.30769    0.29437   1.00
H1       0.22727    0.05536    0.38505   1.00
H1       0.47809    0.16470    0.31431   1.00
C6       0.30748    0.01578    0.37012   1.00
C6       0.43250    0.07817    0.34394   1.00
H2       0.25208    -0.01551   0.36977   1.00
H2       0.48503    0.11993    0.34307   1.00
H2       0.32273    -0.01686   0.36238   1.00
H2       0.43272    0.05447    0.35826   1.00
C6       0.33565    0.02844    0.39236   1.00
C6       0.41535    0.02537    0.32638   1.00
H2       0.32934    0.06875    0.39933   1.00
H2       0.40523    0.04491    0.31243   1.00
C6       0.30489    -0.03393   0.40719   1.00
C6       0.46925    0.00344    0.32139   1.00
H2       0.39071    0.04899    0.39153   1.00
H2       0.36721    -0.02036   0.33015   1.00
C6       0.22867    -0.05955   0.41180   1.00
C6       0.53598    0.06365    0.31274   1.00
C6       0.31227    -0.09371   0.39869   1.00
C6       0.48635    -0.02592   0.34028   1.00
C6       0.34433    -0.01112   0.42758   1.00
C6       0.43910    -0.05318   0.30493   1.00
H2       0.22160    -0.01823   0.41751   1.00
H2       0.52551    0.08624    0.29957   1.00
H2       0.19721    -0.08031   0.39830   1.00
H2       0.56216    0.10366    0.32400   1.00
H2       0.20900    -0.09986   0.42320   1.00
H2       0.57134    0.04679    0.30800   1.00
H2       0.29515    -0.13495   0.40974   1.00
H2       0.52017    -0.04552   0.33632   1.00
H2       0.28163    -0.11480   0.38504   1.00
H2       0.51202    0.01324    0.35182   1.00
H2       0.36531    -0.07668   0.39492   1.00
H2       0.44005    -0.06751   0.34691   1.00
H2       0.34015    0.03065    0.43435   1.00
H2       0.42677    -0.03481   0.29115   1.00
H2       0.32436    -0.05293   0.43852   1.00
H2       0.47514    -0.06991   0.30083   1.00
H2       0.39836    0.00627    0.42539   1.00
H2       0.39253    -0.09774   0.31029   1.00
C4       0.87274    0.69161    0.34906   1.00
C4       0.84516    0.64237    0.33312   1.00
C3       0.91824    0.69118    0.36391   1.00
C3       0.86659    0.59382    0.32964   1.00
C3       0.85462    0.74359    0.35046   1.00
C3       0.79422    0.64095    0.31998   1.00
C2       0.93119    0.79315    0.38072   1.00
C2       0.78701    0.54061    0.30151   1.00
C3       0.94690    0.74054    0.37921   1.00
C3       0.83825    0.54423    0.31440   1.00
C3       0.88523    0.79312    0.36620   1.00
C3       0.76638    0.58939    0.30471   1.00
H1       0.93172    0.65459    0.36429   1.00
H1       0.90408    0.59310    0.33793   1.00
C5       0.80684    0.74495    0.33646   1.00
C5       0.77264    0.69034    0.32219   1.00
H1       0.97959    0.73756    0.38941   1.00
H1       0.85572    0.51050    0.31273   1.00
H1       0.87397    0.83113    0.36760   1.00
H1       0.72973    0.58644    0.29516   1.00
C6       0.79373    0.80429    0.33676   1.00
C6       0.71367    0.68377    0.30962   1.00
H2       0.84220    0.85164    0.33827   1.00
H2       0.67320    0.63056    0.30948   1.00
H2       0.77590    0.81130    0.32214   1.00
H2       0.68847    0.70825    0.31693   1.00
C6       0.74173    0.79755    0.35357   1.00
C6       0.73502    0.71294    0.28761   1.00
H2       0.75361    0.78071    0.36775   1.00
H2       0.76884    0.69633    0.28119   1.00
C6       0.73571    0.86209    0.35831   1.00
C6       0.67666    0.69552    0.27191   1.00
H2       0.69143    0.75619    0.34912   1.00
H2       0.76608    0.76837    0.28878   1.00
C6       0.80219    0.92000    0.36785   1.00
C6       0.63660    0.61827    0.26687   1.00
C6       0.71801    0.88936    0.33906   1.00
C6       0.62629    0.71807    0.27959   1.00
C6       0.67741    0.84205    0.37394   1.00
C6       0.70914    0.73445    0.25190   1.00
H2       0.81669    0.90205    0.38130   1.00
H2       0.67090    0.60050    0.26172   1.00
H2       0.84454    0.93951    0.35718   1.00
H2       0.60894    0.58801    0.28004   1.00
H2       0.79590    0.96288    0.37239   1.00
H2       0.59923    0.60735    0.25491   1.00
H2       0.70914    0.93125    0.34279   1.00
H2       0.58871    0.71018    0.26797   1.00
H2       0.75957    0.90853    0.32810   1.00
H2       0.59854    0.68880    0.29290   1.00
H2       0.67216    0.84916    0.33181   1.00
H2       0.65339    0.77200    0.28365   1.00
H2       0.68776    0.82308    0.38794   1.00
H2       0.74472    0.71981    0.24570   1.00
H2       0.67151    0.88567    0.37785   1.00
H2       0.67035    0.72355    0.24038   1.00
H2       0.62875    0.80222    0.36792   1.00
H2       0.73705    0.78947    0.25439   1.00
C4       0.81933    0.12749    0.34900   1.00
C4       0.79779    0.15522    0.33307   1.00
C3       0.77276    0.07923    0.36320   1.00
C3       0.72768    0.13142    0.32892   1.00
C3       0.88996    0.14831    0.35106   1.00
C3       0.84756    0.20875    0.32064   1.00
C2       0.86237    0.06885    0.38062   1.00
C2       0.75422    0.21353    0.30150   1.00
C3       0.79344    0.05048    0.37848   1.00
C3       0.70644    0.15983    0.31369   1.00
C3       0.90888    0.11752    0.36675   1.00
C3       0.82382    0.23655    0.30537   1.00
H1       0.72215    0.06367    0.36311   1.00
H1       0.68940    0.09209    0.33667   1.00
C5       0.93961    0.19884    0.33775   1.00
C5       0.91882    0.23288    0.32354   1.00
H1       0.75731    0.01573    0.38819   1.00
H1       0.65511    0.14056    0.31151   1.00
H1       0.95854    0.13067    0.36861   1.00
H1       0.85767    0.27499    0.29632   1.00
C6       1.01302    0.21501    0.33871   1.00
C6       0.97108    0.29431    0.31176   1.00
H2       1.01403    0.16753    0.33991   1.00
H2       0.95614    0.33319    0.31176   1.00
H2       1.03933    0.23527    0.32441   1.00
H2       1.01979    0.32038    0.31961   1.00
C6       1.05477    0.26589    0.35618   1.00
C6       0.98278    0.27645    0.28970   1.00
H2       1.02426    0.25130    0.37005   1.00
H2       0.93361    0.24183    0.28268   1.00
C6       1.12605    0.27454    0.36151   1.00
C6       1.02374    0.33711    0.27470   1.00
H2       1.06203    0.31587    0.35211   1.00
H2       1.00905    0.24717    0.29087   1.00
C6       1.11934    0.20821    0.37056   1.00
C6       0.98439    0.37499    0.26961   1.00
C6       1.17351    0.29616    0.34274   1.00
C6       1.09495    0.38876    0.28325   1.00
C6       1.16048    0.33136    0.37778   1.00
C6       1.03432    0.30808    0.25455   1.00
H2       1.08522    0.19097    0.38366   1.00
H2       0.93342    0.33969    0.26384   1.00
H2       1.09930    0.16708    0.35947   1.00
H2       0.97881    0.40030    0.28291   1.00
H2       1.16875    0.21614    0.37553   1.00
H2       1.01110    0.41407    0.25809   1.00
H2       1.22455    0.30678    0.34692   1.00
H2       1.12491    0.42817    0.27210   1.00
H2       1.15395    0.25587    0.33135   1.00
H2       1.09045    0.41420    0.29671   1.00
H2       1.17796    0.34198    0.33582   1.00
H2       1.12319    0.36314    0.28735   1.00
H2       1.12929    0.31825    0.39148   1.00
H2       0.98544    0.27174    0.24775   1.00
H2       1.21036    0.33900    0.38212   1.00
H2       1.06237    0.34856    0.24350   1.00
H2       1.16789    0.37992    0.37214   1.00
H2       1.06308    0.28186    0.25708   1.00
C4       0.81640    0.68126    0.85215   1.00
C4       0.79395    0.62869    0.83720   1.00
C3       0.77840    0.71389    0.85714   1.00
C3       0.72876    0.60015    0.82775   1.00
C3       0.87918    0.70274    0.86264   1.00
C3       0.83764    0.60298    0.83131   1.00
C2       0.86008    0.78524    0.88308   1.00
C2       0.74980    0.52473    0.80625   1.00
C3       0.79929    0.76406    0.87219   1.00
C3       0.70738    0.55001    0.81268   1.00
C3       0.89846    0.75373    0.87795   1.00
C3       0.81410    0.55216    0.81581   1.00
H1       0.73446    0.70291    0.84988   1.00
H1       0.69410    0.61425    0.83162   1.00
C5       0.92106    0.67380    0.85768   1.00
C5       0.90268    0.62767    0.84088   1.00
H1       0.76946    0.78543    0.87513   1.00
H1       0.65987    0.53171    0.80640   1.00
H1       0.94251    0.77000    0.88584   1.00
H1       0.84390    0.53296    0.81112   1.00
C6       0.98357    0.69168    0.87036   1.00
C6       0.95131    0.60538    0.83301   1.00
H2       0.97081    0.69049    0.88635   1.00
H2       0.95174    0.60706    0.81649   1.00
H2       0.99721    0.65203    0.86966   1.00
H2       1.00400    0.64240    0.83657   1.00
C6       1.04719    0.76153    0.86432   1.00
C6       0.93494    0.53366    0.84110   1.00
H2       1.03166    0.79967    0.86210   1.00
H2       0.88002    0.49831    0.84027   1.00
C6       1.10968    0.79244    0.87909   1.00
C6       0.97171    0.49881    0.83060   1.00
H2       1.06452    0.75513    0.84944   1.00
H2       0.94727    0.53888    0.85725   1.00
C6       1.09225    0.81334    0.89967   1.00
C6       0.94841    0.47952    0.80827   1.00
C6       1.13605    0.74213    0.88299   1.00
C6       1.05028    0.54495    0.83124   1.00
C6       1.16842    0.85777    0.86925   1.00
C6       0.95277    0.43189    0.84217   1.00
H2       1.07242    0.84802    0.89742   1.00
H2       0.89300    0.44783    0.80727   1.00
H2       1.05413    0.76914    0.90801   1.00
H2       0.96388    0.52462    0.79895   1.00
H2       1.13731    0.83911    0.90932   1.00
H2       0.97067    0.45108    0.80153   1.00
H2       1.18248    0.76591    0.89212   1.00
H2       1.07548    0.51833    0.82521   1.00
H2       1.09829    0.69716    0.89116   1.00
H2       1.06677    0.59077    0.82215   1.00
H2       1.14735    0.72549    0.86871   1.00
H2       1.06789    0.56045    0.84677   1.00
H2       1.15266    0.89538    0.86637   1.00
H2       0.89773    0.39710    0.84199   1.00
H2       1.21318    0.88154    0.87909   1.00
H2       0.97693    0.40539    0.83531   1.00
H2       1.18400    0.84610    0.85483   1.00
H2       0.96918    0.44230    0.85797   1.00
C4       0.30894    0.12682    0.84921   1.00
C4       0.36045    0.15262    0.83388   1.00
C3       0.24775    0.12976    0.84740   1.00
C3       0.35130    0.17654    0.81480   1.00
C3       0.31815    0.09686    0.86715   1.00
C3       0.42381    0.15488    0.83749   1.00
C2       0.20323    0.07165    0.87974   1.00
C2       0.46583    0.20792    0.80325   1.00
C3       0.19630    0.10275    0.86213   1.00
C3       0.40243    0.20368    0.79997   1.00
C3       0.26435    0.06960    0.88174   1.00
C3       0.47470    0.18324    0.82204   1.00
H1       0.23858    0.15224    0.83540   1.00
H1       0.30690    0.17452    0.81089   1.00
C5       0.37991    0.09501    0.87022   1.00
C5       0.43493    0.12889    0.85607   1.00
H1       0.15326    0.10623    0.85989   1.00
H1       0.39275    0.22033    0.78656   1.00
H1       0.26881    0.04748    0.89463   1.00
H1       0.52058    0.18614    0.82410   1.00
C6       0.38593    0.05676    0.88821   1.00
C6       0.50465    0.13822    0.86058   1.00
H2       0.33870    0.00819    0.88974   1.00
H2       0.54349    0.19000    0.85655   1.00
H2       0.42271    0.04016    0.88543   1.00
H2       0.51309    0.13755    0.87679   1.00
C6       0.40521    0.09889    0.90840   1.00
C6       0.51759    0.08379    0.84995   1.00
H2       0.37492    0.12406    0.90984   1.00
H2       0.49985    0.07696    0.83425   1.00
C6       0.39806    0.05981    0.92867   1.00
C6       0.59239    0.09704    0.84978   1.00
H2       0.45799    0.14022    0.90705   1.00
H2       0.48502    0.03474    0.85731   1.00
C6       0.32251    0.00719    0.93343   1.00
C6       0.64018    0.16025    0.83677   1.00
C6       0.44016    0.02298    0.92818   1.00
C6       0.62182    0.10655    0.87151   1.00
C6       0.42553    0.11227    0.94631   1.00
C6       0.59205    0.03422    0.84020   1.00
H2       0.29119    0.03142    0.93356   1.00
H2       0.62022    0.15561    0.82141   1.00
H2       0.30112    -0.03367   0.92226   1.00
H2       0.64613    0.20702    0.84336   1.00
H2       0.31760    -0.01635   0.94824   1.00
H2       0.69097    0.16628    0.83559   1.00
H2       0.43876    0.00002    0.94286   1.00
H2       0.67204    0.11087    0.87134   1.00
H2       0.41993    -0.01774   0.91693   1.00
H2       0.62755    0.15281    0.87846   1.00
H2       0.49331    0.05865    0.92443   1.00
H2       0.58837    0.06335    0.88111   1.00
H2       0.39699    0.13926    0.94746   1.00
H2       0.57233    0.02565    0.82471   1.00
H2       0.42119    0.08730    0.96084   1.00
H2       0.64336    0.04125    0.83961   1.00
H2       0.47918    0.15007    0.94403   1.00
H2       0.56021    -0.01191   0.84895   1.00
C4       0.87268    0.18099    0.84904   1.00
C4       0.84705    0.20659    0.83363   1.00
C3       0.86177    0.11334    0.84864   1.00
C3       0.81504    0.16897    0.81570   1.00
C3       0.91070    0.22395    0.86562   1.00
C3       0.85333    0.27228    0.83596   1.00
C2       0.92732    0.13024    0.87968   1.00
C2       0.79221    0.25686    0.80292   1.00
C3       0.88848    0.08873    0.86341   1.00
C3       0.78812    0.19307    0.80084   1.00
C3       0.93736    0.19706    0.88030   1.00
C3       0.82490    0.29481    0.82053   1.00
H1       0.83341    0.07917    0.83771   1.00
H1       0.81070    0.12293    0.81268   1.00
C5       0.92092    0.29158    0.86731   1.00
C5       0.88758    0.31373    0.85327   1.00
H1       0.87902    0.03953    0.86222   1.00
H1       0.76541    0.16337    0.78830   1.00
H1       0.96504    0.22621    0.89223   1.00
H1       0.82794    0.34102    0.82172   1.00
C6       0.96728    0.33889    0.88370   1.00
C6       0.88746    0.37982    0.85662   1.00
H2       1.01312    0.33471    0.88449   1.00
H2       0.83649    0.37142    0.85364   1.00
H2       0.98824    0.39214    0.87957   1.00
H2       0.89410    0.39425    0.87254   1.00
C6       0.93147    0.32622    0.90488   1.00
C6       0.94292    0.44070    0.84383   1.00
H2       0.90188    0.27144    0.90785   1.00
H2       0.94321    0.42360    0.82835   1.00
C6       0.97782    0.36113    0.92379   1.00
C6       0.93786    0.50707    0.84255   1.00
H2       0.89395    0.34300    0.90389   1.00
H2       0.99279    0.45418    0.85009   1.00
C6       1.02553    0.33189    0.92825   1.00
C6       0.87321    0.49475    0.83086   1.00
C6       1.02135    0.43944    0.92110   1.00
C6       0.93799    0.53583    0.86389   1.00
C6       0.93138    0.34673    0.94263   1.00
C6       1.00086    0.56208    0.83079   1.00
H2       0.99641    0.27650    0.92990   1.00
H2       0.87103    0.47337    0.81585   1.00
H2       1.06250    0.34390    0.91613   1.00
H2       0.82681    0.45962    0.83896   1.00
H2       1.05418    0.35308    0.94224   1.00
H2       0.87256    0.54224    0.82883   1.00
H2       1.04976    0.46375    0.93491   1.00
H2       0.93937    0.58461    0.86280   1.00
H2       1.05829    0.45252    0.90888   1.00
H2       0.89220    0.50104    0.87232   1.00
H2       0.98909    0.46114    0.91752   1.00
H2       0.98228    0.54363    0.87260   1.00
H2       0.89998    0.29199    0.94534   1.00
H2       1.00281    0.54457    0.81550   1.00
H2       0.96150    0.36975    0.95628   1.00
H2       0.99941    0.60937    0.82938   1.00
H2       0.89737    0.36741    0.94057   1.00
H2       1.04818    0.57404    0.83853   1.00
C4       0.01516    0.48833    0.31459   1.00
C4       -0.03624   0.46729    0.32986   1.00
C3       0.01771    0.44155    0.30065   1.00
C3       -0.09263   0.39953    0.33093   1.00
C3       0.06645    0.55861    0.31298   1.00
C3       -0.03197   0.51518    0.34476   1.00
C2       0.11710    0.53130    0.28305   1.00
C2       -0.13842   0.42379    0.36134   1.00
C3       0.06686    0.46230    0.28529   1.00
C3       -0.14203   0.37823    0.34623   1.00
C3       0.11538    0.57771    0.29705   1.00
C3       -0.08312   0.49135    0.36015   1.00
H1       -0.01564   0.39055    0.30127   1.00
H1       -0.10029   0.36328    0.32050   1.00
C5       0.06823    0.60764    0.32711   1.00
C5       0.02204    0.58483    0.34397   1.00
H1       0.06577    0.42610    0.27567   1.00
H1       -0.18130   0.32859    0.34620   1.00
H1       0.15236    0.62727    0.29533   1.00
H1       -0.08156   0.52376    0.37109   1.00
C6       0.11820    0.68275    0.32392   1.00
C6       0.03006    0.63308    0.36102   1.00
H2       0.11848    0.69501    0.30792   1.00
H2       0.02335    0.60714    0.37548   1.00
H2       0.10060    0.71458    0.33096   1.00
H2       0.08227    0.67488    0.36226   1.00
C6       0.19175    0.70519    0.33183   1.00
C6       -0.01883   0.66310    0.35901   1.00
H2       0.20602    0.66763    0.32722   1.00
H2       -0.06986   0.62245    0.35483   1.00
C6       0.25076    0.77732    0.32538   1.00
C6       -0.02605   0.70114    0.37784   1.00
H2       0.18973    0.70295    0.34838   1.00
H2       -0.00134   0.69825    0.34616   1.00
C6       0.26441    0.78134    0.30222   1.00
C6       -0.06095   0.65191    0.39592   1.00
C6       0.23550    0.83437    0.33154   1.00
C6       0.04397    0.76056    0.38478   1.00
C6       0.31713    0.79103    0.33635   1.00
C6       -0.07165   0.73161    0.37184   1.00
H2       0.27427    0.74098    0.29733   1.00
H2       -0.11007   0.60875    0.39142   1.00
H2       0.22117    0.77632    0.29357   1.00
H2       -0.02953   0.63178    0.40174   1.00
H2       0.30861    0.83012    0.29809   1.00
H2       -0.07003   0.67784    0.40845   1.00
H2       0.27895    0.88471    0.32829   1.00
H2       0.03790    0.78974    0.39696   1.00
H2       0.19189    0.82984    0.32318   1.00
H2       0.07648    0.74149    0.39048   1.00
H2       0.22429    0.83179    0.34771   1.00
H2       0.07026    0.79524    0.37221   1.00
H2       0.33063    0.75247    0.33234   1.00
H2       -0.12209   0.69158    0.36701   1.00
H2       0.36003    0.84075    0.33222   1.00
H2       -0.07859   0.75838    0.38457   1.00
H2       0.31116    0.79023    0.35279   1.00
H2       -0.04899   0.76792    0.35939   1.00
C4       0.47337    0.98472    0.31461   1.00
C4       0.50371    1.03605    0.32991   1.00
C3       0.42586    0.98363    0.30023   1.00
C3       0.49426    1.09369    0.33059   1.00
C3       0.49053    0.93202    0.31344   1.00
C3       0.54533    1.03041    0.34523   1.00
C2       0.41453    0.88289    0.28305   1.00
C2       0.56229    1.13814    0.36142   1.00
C3       0.39753    0.93453    0.28486   1.00
C3       0.52232    1.14306    0.34590   1.00
C3       0.46084    0.88319    0.29749   1.00
C3       0.57266    1.08159    0.36062   1.00
H1       0.40953    1.01807    0.30052   1.00
H1       0.46720    1.10232    0.31986   1.00
C5       0.53584    0.92879    0.32802   1.00
C5       0.55903    0.97505    0.34486   1.00
H1       0.36377    0.93669    0.27490   1.00
H1       0.51338    1.18327    0.34557   1.00
H1       0.47215    0.84522    0.29607   1.00
H1       0.60211    1.07908    0.37185   1.00
C6       0.55919    0.87722    0.32532   1.00
C6       0.59702    0.96573    0.36233   1.00
H2       0.57219    0.87645    0.30944   1.00
H2       0.57722    0.97325    0.37657   1.00
H2       0.60782    0.89355    0.33274   1.00
H2       0.58502    0.91305    0.36373   1.00
C6       0.50598    0.80421    0.33311   1.00
C6       0.67633    1.01285    0.36082   1.00
H2       0.45490    0.79134    0.32809   1.00
H2       0.68851    1.06432    0.35648   1.00
C6       0.51746    0.74382    0.32709   1.00
C6       0.71963    1.01885    0.38003   1.00
H2       0.50455    0.80636    0.34965   1.00
H2       0.69412    0.99444    0.34822   1.00
C6       0.50933    0.73012    0.30392   1.00
C6       0.70528    1.05487    0.39779   1.00
C6       0.58859    0.75704    0.33385   1.00
C6       0.70643    0.94812    0.38721   1.00
C6       0.46271    0.67816    0.33789   1.00
C6       0.79635    1.06269    0.37452   1.00
H2       0.46001    0.72168    0.29860   1.00
H2       0.71307    1.10453    0.39310   1.00
H2       0.54897    0.77276    0.29541   1.00
H2       0.65314    1.02464    0.40328   1.00
H2       0.51273    0.68505    0.30005   1.00
H2       0.73904    1.06304    0.41060   1.00
H2       0.59421    0.71267    0.33088   1.00
H2       0.74036    0.95324    0.39969   1.00
H2       0.62905    0.80003    0.32564   1.00
H2       0.65423    0.91679    0.39259   1.00
H2       0.59619    0.76825    0.35004   1.00
H2       0.71479    0.92107    0.37486   1.00
H2       0.41140    0.66609    0.33346   1.00
H2       0.80859    1.11356    0.36953   1.00
H2       0.46835    0.63434    0.33404   1.00
H2       0.82876    1.06875    0.38752   1.00
H2       0.46673    0.68416    0.35434   1.00
H2       0.81000    1.03917    0.36231   1.00
C4       0.51138    0.52664    0.31461   1.00
C4       0.53237    0.49630    0.32991   1.00
C3       0.55781    0.57423    0.30025   1.00
C3       0.59948    0.50583    0.33060   1.00
C3       0.44150    0.50940    0.31342   1.00
C3       0.48508    0.45459    0.34521   1.00
C2       0.46839    0.58549    0.28305   1.00
C2       0.57588    0.43771    0.36142   1.00
C3       0.53704    0.60257    0.28487   1.00
C3       0.62080    0.47777    0.34591   1.00
C3       0.42235    0.53910    0.29747   1.00
C3       0.50892    0.42726    0.36060   1.00
H1       0.60859    0.59062    0.30055   1.00
H1       0.63520    0.53296    0.31989   1.00
C5       0.39293    0.46400    0.32798   1.00
C5       0.41600    0.44081    0.34482   1.00
H1       0.57298    0.63638    0.27494   1.00
H1       0.66997    0.48677    0.34560   1.00
H1       0.37306    0.52773    0.29604   1.00
H1       0.47694    0.39774    0.37182   1.00
C6       0.31799    0.44057    0.32526   1.00
C6       0.36863    0.40271    0.36227   1.00
H2       0.30429    0.42761    0.30938   1.00
H2       0.39589    0.42248    0.37652   1.00
H2       0.28572    0.39190    0.33266   1.00
H2       0.32791    0.41465    0.36366   1.00
C6       0.29808    0.49369    0.33306   1.00
C6       0.33654    0.32342    0.36074   1.00
H2       0.33626    0.54480    0.32805   1.00
H2       0.37589    0.31132    0.35640   1.00
C6       0.22619    0.48213    0.32701   1.00
C6       0.29920    0.28003    0.37993   1.00
H2       0.30160    0.49506    0.34959   1.00
H2       0.30038    0.30563    0.34813   1.00
C6       0.22070    0.49033    0.30384   1.00
C6       0.34952    0.29438    0.39771   1.00
C6       0.16833    0.41095    0.33375   1.00
C6       0.24159    0.29311    0.38711   1.00
C6       0.21517    0.53679    0.33782   1.00
C6       0.26643    0.20333    0.37440   1.00
H2       0.26155    0.53969    0.29855   1.00
H2       0.39146    0.28668    0.39303   1.00
H2       0.22379    0.45076    0.29533   1.00
H2       0.37136    0.34650    0.40322   1.00
H2       0.17222    0.48688    0.29996   1.00
H2       0.32392    0.26056    0.41051   1.00
H2       0.11832    0.40528    0.33077   1.00
H2       0.21276    0.25913    0.39957   1.00
H2       0.17094    0.37055    0.32553   1.00
H2       0.26239    0.34530    0.39250   1.00
H2       0.17189    0.40331    0.34994   1.00
H2       0.20621    0.28475    0.37475   1.00
H2       0.25438    0.58814    0.33342   1.00
H2       0.30513    0.19118    0.36942   1.00
H2       0.16570    0.53110    0.33396   1.00
H2       0.24006    0.17087    0.38739   1.00
H2       0.21710    0.53273    0.35428   1.00
H2       0.22929    0.18969    0.36218   1.00
C4       0.17562    0.31688    0.14827   1.00
C4       0.20008    0.36992    0.16311   1.00
C3       0.10826    0.25966    0.14882   1.00
C3       0.15690    0.37317    0.17826   1.00
C3       0.21954    0.32029    0.13217   1.00
C3       0.27025    0.42219    0.16302   1.00
C2       0.12500    0.21128    0.11770   1.00
C2       0.25020    0.47527    0.19375   1.00
C3       0.08350    0.20859    0.13397   1.00
C3       0.18114    0.42398    0.19318   1.00
C3       0.19222    0.26743    0.11728   1.00
C3       0.29298    0.47282    0.17856   1.00
H1       0.07488    0.25260    0.16015   1.00
H1       0.10607    0.33912    0.17889   1.00
C5       0.28877    0.37515    0.13128   1.00
C5       0.31556    0.42325    0.14764   1.00
H1       0.03433    0.16879    0.13518   1.00
H1       0.14744    0.42333    0.20373   1.00
H1       0.22173    0.26832    0.10553   1.00
H1       0.34261    0.51056    0.17908   1.00
C6       0.33235    0.38203    0.11303   1.00
C6       0.39104    0.47450    0.14899   1.00
H2       0.30230    0.37323    0.09929   1.00
H2       0.40789    0.47685    0.16460   1.00
H2       0.37303    0.43436    0.11087   1.00
H2       0.42144    0.45686    0.14106   1.00
C6       0.36409    0.33444    0.11406   1.00
C6       0.40994    0.54681    0.14077   1.00
H2       0.32538    0.28363    0.11913   1.00
H2       0.37316    0.56076    0.14642   1.00
C6       0.39721    0.32583    0.09426   1.00
C6       0.48316    0.60732    0.14548   1.00
H2       0.40275    0.35389    0.12600   1.00
H2       0.40305    0.54286    0.12433   1.00
C6       0.34326    0.28827    0.07744   1.00
C6       0.49347    0.62358    0.16850   1.00
C6       0.45365    0.39546    0.08601   1.00
C6       0.53914    0.59258    0.13777   1.00
C6       0.43046    0.28196    0.09926   1.00
C6       0.49254    0.67201    0.13442   1.00
H2       0.30207    0.23936    0.08289   1.00
H2       0.45404    0.63314    0.17448   1.00
H2       0.32074    0.31832    0.07228   1.00
H2       0.49172    0.58168    0.17710   1.00
H2       0.36600    0.27832    0.06422   1.00
H2       0.54284    0.66873    0.17147   1.00
H2       0.47970    0.38859    0.07307   1.00
H2       0.58984    0.63691    0.13981   1.00
H2       0.43220    0.42662    0.08095   1.00
H2       0.53780    0.55029    0.14607   1.00
H2       0.49157    0.42359    0.09770   1.00
H2       0.53219    0.57957    0.12168   1.00
H2       0.39255    0.23183    0.10497   1.00
H2       0.45460    0.68511    0.13949   1.00
H2       0.45395    0.27412    0.08584   1.00
H2       0.54289    0.71589    0.13736   1.00
H2       0.47006    0.30651    0.11078   1.00
H2       0.48722    0.66419    0.11804   1.00
C4       0.69094    0.87325    0.15076   1.00
C4       0.64174    0.84606    0.16672   1.00
C3       0.68515    0.91060    0.13423   1.00
C3       0.58738    0.86034    0.16841   1.00
C3       0.74840    0.86311    0.15107   1.00
C3       0.64635    0.80292    0.18172   1.00
C2       0.79213    0.93114    0.11899   1.00
C2       0.54028    0.78840    0.19842   1.00
C3       0.73429    0.93900    0.11887   1.00
C3       0.53794    0.83219    0.18370   1.00
C3       0.79750    0.89319    0.13519   1.00
C3       0.59476    0.77497    0.19698   1.00
H1       0.64465    0.91800    0.13263   1.00
H1       0.58206    0.89228    0.15871   1.00
C5       0.75551    0.82353    0.16685   1.00
C5       0.70156    0.78900    0.18130   1.00
H1       0.72729    0.96562    0.10741   1.00
H1       0.49987    0.84427    0.18404   1.00
H1       0.83928    0.88750    0.13496   1.00
H1       0.59604    0.74371    0.20782   1.00
C6       0.82007    0.81933    0.16819   1.00
C6       0.70179    0.73759    0.19594   1.00
H2       0.86393    0.86992    0.16573   1.00
H2       0.65074    0.69317    0.19663   1.00
H2       0.82922    0.80830    0.18354   1.00
H2       0.73132    0.71543    0.19013   1.00
C6       0.82044    0.76537    0.15337   1.00
C6       0.72897    0.76790    0.21755   1.00
H2       0.80164    0.76973    0.13850   1.00
H2       0.70669    0.79880    0.22230   1.00
C6       0.88976    0.76706    0.15013   1.00
C6       0.71751    0.71655    0.23506   1.00
H2       0.78304    0.71480    0.15894   1.00
H2       0.78366    0.80364    0.21625   1.00
C6       0.94279    0.83322    0.13920   1.00
C6       0.64074    0.67077    0.24014   1.00
C6       0.92015    0.76028    0.17046   1.00
C6       0.74830    0.67081    0.22982   1.00
C6       0.87682    0.70586    0.13647   1.00
C6       0.75365    0.75783    0.25445   1.00
H2       0.92244    0.84008    0.12493   1.00
H2       0.61722    0.70156    0.24359   1.00
H2       0.95745    0.87814    0.14853   1.00
H2       0.61287    0.63719    0.22755   1.00
H2       0.98919    0.83181    0.13575   1.00
H2       0.63357    0.63849    0.25326   1.00
H2       0.96583    0.75660    0.16791   1.00
H2       0.74437    0.63865    0.24267   1.00
H2       0.93456    0.80451    0.18012   1.00
H2       0.72148    0.63723    0.21710   1.00
H2       0.88328    0.71482    0.17867   1.00
H2       0.80202    0.70181    0.22577   1.00
H2       0.85596    0.70858    0.12179   1.00
H2       0.73324    0.79054    0.25895   1.00
H2       0.92394    0.70509    0.13365   1.00
H2       0.74671    0.72411    0.26718   1.00
H2       0.84076    0.65748    0.14356   1.00
H2       0.80836    0.79020    0.25195   1.00
C4       0.12750    0.81935    0.15100   1.00
C4       0.15523    0.79781    0.16693   1.00
C3       0.07913    0.77275    0.13683   1.00
C3       0.13134    0.72770    0.17111   1.00
C3       0.14842    0.89000    0.14891   1.00
C3       0.20887    0.84759    0.17933   1.00
C2       0.06885    0.86238    0.11938   1.00
C2       0.21355    0.75425    0.19850   1.00
C3       0.05038    0.79344    0.12155   1.00
C3       0.15975    0.70646    0.18634   1.00
C3       0.11763    0.90891    0.13322   1.00
C3       0.23667    0.82385    0.19461   1.00
H1       0.06349    0.72213    0.13694   1.00
H1       0.09194    0.68942    0.16338   1.00
C5       0.19906    0.93966    0.16220   1.00
C5       0.23310    0.91886    0.17640   1.00
H1       0.01555    0.75729    0.11186   1.00
H1       0.14042    0.65514    0.18854   1.00
H1       0.13085    0.95859    0.13135   1.00
H1       0.27517    0.85770    0.20363   1.00
C6       0.21536    1.01311    0.16121   1.00
C6       0.29463    0.97111    0.18815   1.00
H2       0.16792    1.01420    0.16002   1.00
H2       0.33344    0.95608    0.18814   1.00
H2       0.23571    1.03947    0.17550   1.00
H2       0.32073    1.01977    0.18028   1.00
C6       0.26618    1.05471    0.14372   1.00
C6       0.27690    0.98296    0.21022   1.00
H2       0.25148    1.02413    0.12986   1.00
H2       0.24226    0.93385    0.21726   1.00
C6       0.27494    1.12601    0.13836   1.00
C6       0.33765    1.02392    0.22519   1.00
H2       0.31615    1.06190    0.14777   1.00
H2       0.24770    1.00931    0.20904   1.00
C6       0.20862    1.11938    0.12933   1.00
C6       0.37544    0.98448    0.23028   1.00
C6       0.29672    1.17357    0.15711   1.00
C6       0.38935    1.09505    0.21660   1.00
C6       0.33170    1.16029    0.12206   1.00
C6       0.30876    1.03466    0.24534   1.00
H2       0.19126    1.08520    0.11625   1.00
H2       0.34011    0.93356    0.23607   1.00
H2       0.16754    1.09946    0.14044   1.00
H2       0.40066    0.97878    0.21697   1.00
H2       0.21661    1.16881    0.12434   1.00
H2       0.41459    1.01119    0.24178   1.00
H2       0.30740    1.22462    0.15292   1.00
H2       0.42883    1.12502    0.22773   1.00
H2       0.25648    1.15413    0.16851   1.00
H2       0.41469    1.09043    0.20314   1.00
H2       0.34253    1.17798    0.16402   1.00
H2       0.36379    1.12335    0.21250   1.00
H2       0.31847    1.12903    0.10838   1.00
H2       0.27240    0.98583    0.25217   1.00
H2       0.33941    1.21018    0.11771   1.00
H2       0.34931    1.06271    0.25637   1.00
H2       0.38025    1.16765    0.12769   1.00
H2       0.28261    1.06348    0.24281   1.00
C4       0.98495    0.51202    0.68544   1.00
C4       1.03778    0.53725    0.67052   1.00
C3       0.94246    0.44106    0.68941   1.00
C3       1.05649    0.49398    0.66006   1.00
C3       0.97339    0.55880    0.69696   1.00
C3       1.07388    0.60834    0.66570   1.00
C2       0.88032    0.46109    0.71631   1.00
C2       1.14230    0.58765    0.63963   1.00
C3       0.89194    0.41626    0.70443   1.00
C3       1.10690    0.51823    0.64501   1.00
C3       0.92168    0.53149    0.71220   1.00
C3       1.12461    0.63092    0.65020   1.00
H1       0.94616    0.40468    0.68140   1.00
H1       1.03467    0.44333    0.66313   1.00
C5       1.01263    0.63065    0.69307   1.00
C5       1.05929    0.65485    0.67632   1.00
H1       0.86318    0.36451    0.70661   1.00
H1       1.11783    0.48436    0.63797   1.00
H1       0.91226    0.56316    0.72079   1.00
H1       1.15105    0.68102    0.64625   1.00
C6       1.00488    0.67998    0.70679   1.00
C6       1.09265    0.72857    0.66959   1.00
H2       1.00351    0.66451    0.72251   1.00
H2       1.09118    0.73039    0.65309   1.00
H2       1.05031    0.73018    0.70669   1.00
H2       1.06251    0.75180    0.67386   1.00
C6       0.94146    0.68740    0.70141   1.00
C6       1.16696    0.77346    0.67794   1.00
H2       0.89735    0.63701    0.69857   1.00
H2       1.19483    0.74585    0.67635   1.00
C6       0.91959    0.72472    0.71712   1.00
C6       1.21171    0.84602    0.66848   1.00
H2       0.95187    0.71437    0.68695   1.00
H2       1.16339    0.77932    0.69427   1.00
C6       0.89339    0.68371    0.73715   1.00
C6       1.22852    0.84194    0.64589   1.00
C6       0.97886    0.79736    0.72194   1.00
C6       1.17663    0.88956    0.67026   1.00
C6       0.86019    0.73155    0.70789   1.00
C6       1.28028    0.88326    0.68021   1.00
H2       0.85222    0.63178    0.73423   1.00
H2       1.25235    0.81058    0.64407   1.00
H2       0.93385    0.68054    0.74510   1.00
H2       1.18284    0.82003    0.63650   1.00
H2       0.87388    0.70770    0.74744   1.00
H2       1.26355    0.89248    0.63983   1.00
H2       0.96176    0.82468    0.73176   1.00
H2       1.21024    0.94154    0.66494   1.00
H2       1.02023    0.79530    0.72974   1.00
H2       1.13035    0.86806    0.66112   1.00
H2       0.99920    0.82686    0.70805   1.00
H2       1.16295    0.89206    0.68597   1.00
H2       0.81663    0.68150    0.70440   1.00
H2       1.30753    0.85492    0.67925   1.00
H2       0.84278    0.75696    0.71838   1.00
H2       1.31358    0.93414    0.67405   1.00
H2       0.87596    0.76126    0.69390   1.00
H2       1.27188    0.88897    0.69622   1.00
C4       0.52685    0.01515    0.68542   1.00
C4       0.49916    -0.03771   0.67051   1.00
C3       0.49993    0.05924    0.68890   1.00
C3       0.43841    -0.05480   0.65956   1.00
C3       0.58371    0.02510    0.69742   1.00
C3       0.53277    -0.07552   0.66620   1.00
C2       0.58067    0.11989    0.71625   1.00
C2       0.44494    -0.14232   0.63964   1.00
C3       0.52570    0.10982    0.70391   1.00
C3       0.41222    -0.10525   0.64452   1.00
C3       0.60821    0.07693    0.71262   1.00
C3       0.50465    -0.12624   0.65069   1.00
H1       0.46101    0.05671    0.68054   1.00
H1       0.41054    -0.03169   0.66225   1.00
C5       0.61481    -0.01582   0.69403   1.00
C5       0.59251    -0.06259   0.67732   1.00
H1       0.50385    0.13978    0.70572   1.00
H1       0.36836    -0.11496   0.63712   1.00
H1       0.64825    0.08524    0.72155   1.00
H1       0.52736    -0.15387   0.64710   1.00
C6       0.67013    -0.00968   0.70825   1.00
C6       0.63162    -0.09781   0.67114   1.00
H2       0.65511    -0.00775   0.72383   1.00
H2       0.63617    -0.09652   0.65467   1.00
H2       0.67337    -0.05598   0.70842   1.00
H2       0.68475    -0.06887   0.67576   1.00
C6       0.74224    0.05242    0.70322   1.00
C6       0.59968    -0.17228   0.67958   1.00
H2       0.73770    0.09741    0.70010   1.00
H2       0.54434    -0.19882   0.67760   1.00
C6       0.79994    0.07284    0.71937   1.00
C6       0.62630    -0.21867   0.67060   1.00
H2       0.75929    0.04123    0.68897   1.00
H2       0.60782    -0.16885   0.69597   1.00
C6       0.78469    0.10004    0.73912   1.00
C6       0.60694    -0.23522   0.64791   1.00
C6       0.81081    0.01225    0.72461   1.00
C6       0.70460    -0.18555   0.67295   1.00
C6       0.86768    0.13099    0.71047   1.00
C6       0.59239    -0.28724   0.68238   1.00
H2       0.77566    0.14219    0.73589   1.00
H2       0.55205    -0.25767   0.64570   1.00
H2       0.73988    0.06040    0.74686   1.00
H2       0.63251    -0.18964   0.63853   1.00
H2       0.82730    0.11854    0.74972   1.00
H2       0.62153    -0.27133   0.64217   1.00
H2       0.85429    0.02826    0.73476   1.00
H2       0.72198    -0.22030   0.66798   1.00
H2       0.76618    -0.02833   0.73221   1.00
H2       0.73115    -0.13940   0.66381   1.00
H2       0.82023    -0.00879   0.71091   1.00
H2       0.71975    -0.17208   0.68874   1.00
H2       0.86298    0.17542    0.70669   1.00
H2       0.53693    -0.31314   0.68104   1.00
H2       0.90954    0.14737    0.72127   1.00
H2       0.60908    -0.32166   0.67656   1.00
H2       0.88194    0.11444    0.69669   1.00
H2       0.60530    -0.27906   0.69847   1.00
C4       0.48828    0.47314    0.68542   1.00
C4       0.46311    0.50083    0.67051   1.00
C3       0.55929    0.50013    0.68893   1.00
C3       0.50675    0.56163    0.65958   1.00
C3       0.44137    0.41621    0.69740   1.00
C3       0.39169    0.46715    0.66618   1.00
C2       0.53920    0.41933    0.71625   1.00
C2       0.41271    0.55504    0.63964   1.00
C3       0.58410    0.47436    0.70393   1.00
C3       0.48249    0.58782    0.64454   1.00
C3       0.46871    0.39172    0.71260   1.00
C3       0.36910    0.49528    0.65067   1.00
H1       0.59568    0.53910    0.68057   1.00
H1       0.55771    0.58955    0.66229   1.00
C5       0.36935    0.38504    0.69399   1.00
C5       0.34490    0.40735    0.67727   1.00
H1       0.63590    0.49626    0.70576   1.00
H1       0.51663    0.63173    0.63716   1.00
H1       0.43697    0.35163    0.72152   1.00
H1       0.31877    0.47253    0.64706   1.00
C6       0.32016    0.32965    0.70818   1.00
C6       0.27060    0.36819    0.67107   1.00
H2       0.33705    0.34463    0.72377   1.00
H2       0.26740    0.36369    0.65460   1.00
H2       0.27060    0.32634    0.70834   1.00
H2       0.24644    0.31504    0.67567   1.00
C6       0.31028    0.25760    0.70314   1.00
C6       0.22796    0.40002    0.67951   1.00
H2       0.35984    0.26221    0.70003   1.00
H2       0.25670    0.45536    0.67755   1.00
C6       0.27298    0.19982    0.71927   1.00
C6       0.15496    0.37334    0.67051   1.00
H2       0.28209    0.24056    0.68888   1.00
H2       0.22320    0.39182    0.69590   1.00
C6       0.31538    0.21505    0.73903   1.00
C6       0.15783    0.39277    0.64782   1.00
C6       0.20148    0.18885    0.72449   1.00
C6       0.10986    0.29503    0.67283   1.00
C6       0.26352    0.13215    0.71035   1.00
C6       0.12019    0.40714    0.68229   1.00
H2       0.36659    0.22416    0.73582   1.00
H2       0.19023    0.44768    0.64563   1.00
H2       0.32045    0.25982    0.74679   1.00
H2       0.17793    0.36728    0.63844   1.00
H2       0.29126    0.17241    0.74962   1.00
H2       0.10714    0.37814    0.64207   1.00
H2       0.17401    0.14532    0.73463   1.00
H2       0.05773    0.27760    0.66784   1.00
H2       0.20544    0.23343    0.73210   1.00
H2       0.12954    0.26855    0.66369   1.00
H2       0.17106    0.17944    0.71078   1.00
H2       0.10814    0.27983    0.68862   1.00
H2       0.31269    0.13693    0.70659   1.00
H2       0.14970    0.46261    0.68096   1.00
H2       0.23804    0.09024    0.72114   1.00
H2       0.06909    0.39041    0.67645   1.00
H2       0.23275    0.11790    0.69657   1.00
H2       0.11541    0.39418    0.69838   1.00
C4       0.49231    0.02629    0.18212   1.00
C4       0.46827    -0.02342   0.16627   1.00
C3       0.55499    0.04726    0.19245   1.00
C3       0.50841    -0.05027   0.15822   1.00
C3       0.45276    0.05665    0.18808   1.00
C3       0.40173    -0.04772   0.15796   1.00
C2       0.54258    0.12924    0.21348   1.00
C2       0.41846    -0.12640   0.13492   1.00
C3       0.57963    0.09739    0.20759   1.00
C3       0.48426    -0.10044   0.14310   1.00
C3       0.47985    0.10779    0.20348   1.00
C3       0.37889    -0.09910   0.14265   1.00
H1       0.58476    0.02640    0.18951   1.00
H1       0.55696    -0.03390   0.16290   1.00
C5       0.38789    0.03555    0.17882   1.00
C5       0.36006    -0.02052   0.16486   1.00
H1       0.62534    0.11045    0.21441   1.00
H1       0.51561    -0.11790   0.13799   1.00
H1       0.45344    0.13089    0.20803   1.00
H1       0.33170    -0.11799   0.13647   1.00
C6       0.35005    0.07315    0.18371   1.00
C6       0.28716    -0.05178   0.15750   1.00
H2       0.38602    0.12782    0.18367   1.00
H2       0.26347    -0.10715   0.15781   1.00
H2       0.31552    0.06847    0.17156   1.00
H2       0.25558    -0.04332   0.16819   1.00
C6       0.30910    0.04943    0.20410   1.00
C6       0.28102    -0.02536   0.13607   1.00
H2       0.34060    0.04446    0.21578   1.00
H2       0.31973    -0.02441   0.12595   1.00
C6       0.28069    0.09446    0.21296   1.00
C6       0.21053    -0.06474   0.12501   1.00
H2       0.26630    -0.00212   0.20181   1.00
H2       0.29427    0.02788    0.13771   1.00
C6       0.33897    0.16555    0.21972   1.00
C6       0.19284    -0.13815   0.11916   1.00
C6       0.23443    0.10376    0.19751   1.00
C6       0.15222    -0.06805   0.13815   1.00
C6       0.23709    0.05830    0.23200   1.00
C6       0.21447    -0.02630   0.10510   1.00
H2       0.37321    0.16075    0.23039   1.00
H2       0.23356    -0.13763   0.11015   1.00
H2       0.36924    0.19552    0.20684   1.00
H2       0.18514    -0.16941   0.13253   1.00
H2       0.31871    0.19475    0.22715   1.00
H2       0.14602    -0.16350   0.11024   1.00
H2       0.21103    0.13104    0.20432   1.00
H2       0.10425    -0.09124   0.12975   1.00
H2       0.26370    0.13311    0.18439   1.00
H2       0.14415    -0.09861   0.15173   1.00
H2       0.19378    0.05443    0.19219   1.00
H2       0.16407    -0.01708   0.14283   1.00
H2       0.26760    0.05112    0.24351   1.00
H2       0.25450    -0.02316   0.09515   1.00
H2       0.21644    0.08809    0.23883   1.00
H2       0.16645    -0.05216   0.09674   1.00
H2       0.19420    0.00828    0.22813   1.00
H2       0.22548    0.02554    0.10826   1.00
C4       0.98422    0.47402    0.18525   1.00
C4       1.03526    0.50424    0.16987   1.00
C3       0.98828    0.43384    0.20124   1.00
C3       1.09724    0.50244    0.17057   1.00
C3       0.92651    0.48374    0.18486   1.00
C3       1.02484    0.53786    0.15305   1.00
C2       0.88274    0.41566    0.21693   1.00
C2       1.13704    0.56241    0.13827   1.00
C3       0.93934    0.40578    0.21666   1.00
C3       1.14649    0.53030    0.15522   1.00
C3       0.87799    0.45462    0.20092   1.00
C3       1.07609    0.56524    0.13768   1.00
H1       1.02660    0.42287    0.20215   1.00
H1       1.10922    0.48142    0.18236   1.00
C5       0.91815    0.52130    0.16869   1.00
C5       0.96478    0.54381    0.15194   1.00
H1       0.94535    0.37752    0.22781   1.00
H1       1.18998    0.52709    0.15659   1.00
H1       0.83651    0.46081    0.20125   1.00
H1       1.07030    0.58911    0.12542   1.00
C6       0.86082    0.53734    0.16962   1.00
C6       0.95099    0.57300    0.13304   1.00
H2       0.85785    0.55380    0.18493   1.00
H2       0.96184    0.55152    0.11972   1.00
H2       0.87244    0.58242    0.16080   1.00
H2       0.89692    0.55491    0.13114   1.00
C6       0.79053    0.47665    0.16246   1.00
C6       0.99104    0.65292    0.13256   1.00
H2       0.78295    0.42905    0.16906   1.00
H2       1.04371    0.67184    0.13736   1.00
C6       0.72521    0.48152    0.16697   1.00
C6       0.99284    0.68844    0.11201   1.00
H2       0.79358    0.47092    0.14611   1.00
H2       0.96901    0.67071    0.14412   1.00
C6       0.71088    0.47882    0.19006   1.00
C6       1.03323    0.67456    0.09550   1.00
C6       0.73080    0.54730    0.15794   1.00
C6       0.92009    0.66536    0.10407   1.00
C6       0.66297    0.41948    0.15701   1.00
C6       1.02961    0.76668    0.11553   1.00
H2       0.70775    0.43348    0.19695   1.00
H2       1.08451    0.68929    0.10077   1.00
H2       0.75075    0.52332    0.19786   1.00
H2       1.00786    0.62084    0.09136   1.00
H2       0.66279    0.47747    0.19298   1.00
H2       1.03825    0.70331    0.08170   1.00
H2       0.68321    0.54784    0.15989   1.00
H2       0.92185    0.69397    0.09053   1.00
H2       0.77096    0.59253    0.16543   1.00
H2       0.89356    0.61148    0.10002   1.00
H2       0.74230    0.55117    0.14176   1.00
H2       0.89009    0.67326    0.11557   1.00
H2       0.65628    0.37158    0.16303   1.00
H2       1.08161    0.78576    0.12096   1.00
H2       0.61592    0.42036    0.15985   1.00
H2       1.03256    0.79384    0.10155   1.00
H2       0.66942    0.41930    0.14060   1.00
H2       1.00269    0.77988    0.12676   1.00
C4       0.52667    0.51142    0.18539   1.00
C4       0.49632    0.53242    0.17009   1.00
C3       0.57449    0.55790    0.19970   1.00
C3       0.50610    0.59962    0.16936   1.00
C3       0.50918    0.44148    0.18664   1.00
C3       0.45435    0.48504    0.15485   1.00
C2       0.58553    0.46843    0.21695   1.00
C2       0.43772    0.57592    0.13859   1.00
C3       0.60284    0.53713    0.21507   1.00
C3       0.47804    0.62093    0.15405   1.00
C3       0.53890    0.42234    0.20259   1.00
C3       0.42702    0.50888    0.13946   1.00
H1       0.59105    0.60872    0.19936   1.00
H1       0.53343    0.63542    0.18003   1.00
C5       0.46353    0.39284    0.17214   1.00
C5       0.44031    0.41587    0.15529   1.00
H1       0.63683    0.57311    0.22496   1.00
H1       0.48723    0.67017    0.15432   1.00
H1       0.52736    0.37301    0.20406   1.00
H1       0.39732    0.47684    0.12828   1.00
C6       0.43986    0.31788    0.17492   1.00
C6       0.40192    0.36839    0.13789   1.00
H2       0.42704    0.30437    0.19082   1.00
H2       0.42163    0.39547    0.12362   1.00
H2       0.39109    0.28566    0.16757   1.00
H2       0.41365    0.32751    0.13653   1.00
C6       0.49272    0.29762    0.16711   1.00
C6       0.32268    0.33657    0.13950   1.00
H2       0.54393    0.33572    0.17206   1.00
H2       0.31081    0.37610    0.14381   1.00
C6       0.48094    0.22570    0.17321   1.00
C6       0.27904    0.29913    0.12035   1.00
H2       0.49394    0.30097    0.15057   1.00
H2       0.30491    0.30055    0.15214   1.00
C6       0.48934    0.22040    0.19638   1.00
C6       0.29339    0.34931    0.10253   1.00
C6       0.40961    0.16794    0.16655   1.00
C6       0.29178    0.24127    0.11320   1.00
C6       0.53534    0.21431    0.16237   1.00
C6       0.20242    0.26667    0.12595   1.00
H2       0.53881    0.26120    0.20161   1.00
H2       0.28592    0.39141    0.10719   1.00
H2       0.44994    0.22376    0.20491   1.00
H2       0.34543    0.37091    0.09698   1.00
H2       0.48573    0.17188    0.20029   1.00
H2       0.25940    0.32366    0.08977   1.00
H2       0.40377    0.11789    0.16956   1.00
H2       0.25763    0.21240    0.10078   1.00
H2       0.36938    0.17081    0.17479   1.00
H2       0.34389    0.26184    0.10777   1.00
H2       0.40183    0.17136    0.15036   1.00
H2       0.28342    0.20599    0.12559   1.00
H2       0.58679    0.25344    0.16673   1.00
H2       0.19050    0.30555    0.13090   1.00
H2       0.52949    0.16480    0.16627   1.00
H2       0.16978    0.24024    0.11299   1.00
H2       0.53113    0.21608    0.14592   1.00
H2       0.18877    0.22964    0.13819   1.00
C4       0.69301    0.82522    0.65125   1.00
C4       0.64321    0.80104    0.66707   1.00
C3       0.71680    0.88973    0.64173   1.00
C3       0.61909    0.84244    0.67593   1.00
C3       0.72055    0.78395    0.64447   1.00
C3       0.61600    0.73302    0.67452   1.00
C2       0.79615    0.87563    0.61994   1.00
C2       0.54006    0.75111    0.69837   1.00
C3       0.76703    0.91442    0.62663   1.00
C3       0.56886    0.81825    0.69103   1.00
C3       0.77189    0.81114    0.62912   1.00
C3       0.56465    0.71022    0.68984   1.00
H1       0.69803    0.92090    0.64528   1.00
H1       0.63761    0.89195    0.67188   1.00
C5       0.69653    0.71736    0.65287   1.00
C5       0.64036    0.68987    0.66680   1.00
H1       0.78220    0.96148    0.62042   1.00
H1       0.55344    0.85057    0.69674   1.00
H1       0.79303    0.78351    0.62400   1.00
H1       0.54374    0.66203    0.69543   1.00
C6       0.73118    0.67732    0.64713   1.00
C6       0.60605    0.61584    0.67325   1.00
H2       0.78624    0.71132    0.64732   1.00
H2       0.55096    0.59448    0.67298   1.00
H2       0.72468    0.64056    0.65877   1.00
H2       0.61276    0.58451    0.66203   1.00
C6       0.70620    0.63938    0.62630   1.00
C6       0.63119    0.60527    0.69438   1.00
H2       0.70314    0.67349    0.61515   1.00
H2       0.63403    0.64348    0.70508   1.00
C6       0.74862    0.60916    0.61668   1.00
C6       0.58908    0.53362    0.70463   1.00
H2       0.65378    0.59791    0.62831   1.00
H2       0.68370    0.61630    0.69256   1.00
C6       0.82090    0.66607    0.61031   1.00
C6       0.51667    0.51851    0.71073   1.00
C6       0.75507    0.55921    0.63134   1.00
C6       0.58296    0.47586    0.69063   1.00
C6       0.71138    0.56897    0.59726   1.00
C6       0.62645    0.53296    0.72430   1.00
H2       0.81814    0.70284    0.60021   1.00
H2       0.51919    0.55897    0.72036   1.00
H2       0.85150    0.69377    0.62342   1.00
H2       0.48600    0.51406    0.69748   1.00
H2       0.84833    0.64482    0.60237   1.00
H2       0.48945    0.47067    0.71911   1.00
H2       0.78047    0.53475    0.62398   1.00
H2       0.55779    0.42680    0.69845   1.00
H2       0.78501    0.58588    0.64468   1.00
H2       0.55296    0.47102    0.67716   1.00
H2       0.70490    0.51941    0.63639   1.00
H2       0.63322    0.48598    0.68576   1.00
H2       0.70612    0.60215    0.58628   1.00
H2       0.63148    0.57244    0.73483   1.00
H2       0.73936    0.54720    0.58990   1.00
H2       0.59868    0.48399    0.73210   1.00
H2       0.66043    0.52711    0.60083   1.00
H2       0.67750    0.54198    0.72094   1.00
C4       0.12710    0.30856    0.65089   1.00
C4       0.15279    0.35990    0.66627   1.00
C3       0.13487    0.24995    0.65188   1.00
C3       0.18159    0.35277    0.68469   1.00
C3       0.09226    0.31530    0.63374   1.00
C3       0.14990    0.42100    0.66340   1.00
C2       0.07225    0.20304    0.62030   1.00
C2       0.20781    0.46512    0.69695   1.00
C3       0.10804    0.19856    0.63713   1.00
C3       0.20860    0.40384    0.69953   1.00
C3       0.06537    0.26165    0.61910   1.00
C3       0.17831    0.47193    0.67884   1.00
H1       0.16091    0.24272    0.66326   1.00
H1       0.18340    0.30992    0.68809   1.00
C5       0.08535    0.37455    0.63147   1.00
C5       0.11892    0.42986    0.64556   1.00
H1       0.11514    0.15743    0.63876   1.00
H1       0.22890    0.39570    0.71245   1.00
H1       0.03988    0.26438    0.60677   1.00
H1       0.17762    0.51625    0.67728   1.00
C6       0.04217    0.37762    0.61442   1.00
C6       0.12272    0.49760    0.64171   1.00
H2       -0.00485   0.32866    0.61335   1.00
H2       0.17411    0.53871    0.64510   1.00
H2       0.02289    0.41175    0.61800   1.00
H2       0.11850    0.50574    0.62565   1.00
C6       0.08066    0.39933    0.59360   1.00
C6       0.06748    0.50600    0.65364   1.00
H2       0.10857    0.37207    0.59125   1.00
H2       0.06454    0.48837    0.66924   1.00
C6       0.03717    0.38969    0.57412   1.00
C6       0.07580    0.57888    0.65445   1.00
H2       0.11977    0.45309    0.59472   1.00
H2       0.01786    0.47113    0.64695   1.00
C6       -0.01258   0.31322    0.56957   1.00
C6       0.13998    0.62939    0.66667   1.00
C6       -0.00381   0.42746    0.57592   1.00
C6       0.07959    0.60797    0.63292   1.00
C6       0.08618    0.42002    0.55573   1.00
C6       0.01269    0.57391    0.66536   1.00
H2       0.01467    0.28488    0.56854   1.00
H2       0.13940    0.60979    0.68185   1.00
H2       -0.05123   0.28961    0.58133   1.00
H2       0.18666    0.63857    0.65916   1.00
H2       -0.03921   0.30684    0.55523   1.00
H2       0.14276    0.67866    0.66834   1.00
H2       -0.03006   0.42450    0.56175   1.00
H2       0.08046    0.65656    0.63362   1.00
H2       -0.04238   0.40498    0.58777   1.00
H2       0.12570    0.61689    0.62507   1.00
H2       0.02987    0.48115    0.57955   1.00
H2       0.03567    0.57269    0.62385   1.00
H2       0.11591    0.39456    0.55365   1.00
H2       0.00805    0.55425    0.68075   1.00
H2       0.05809    0.41408    0.54171   1.00
H2       0.01635    0.62375    0.66642   1.00
H2       0.12176    0.47435    0.55786   1.00
H2       -0.03423   0.53996    0.65721   1.00
C4       0.18101    0.87269    0.65095   1.00
C4       0.20661    0.84706    0.66637   1.00
C3       0.11338    0.86186    0.65137   1.00
C3       0.16903    0.81514    0.68431   1.00
C3       0.22393    0.91062    0.63436   1.00
C3       0.27225    0.85324    0.66402   1.00
C2       0.13026    0.92734    0.62032   1.00
C2       0.25688    0.79221    0.69708   1.00
C3       0.08878    0.88858    0.63660   1.00
C3       0.19313    0.78821    0.69917   1.00
C3       0.19704    0.93728    0.61969   1.00
C3       0.29478    0.82481    0.67945   1.00
H1       0.07924    0.83357    0.66232   1.00
H1       0.12303    0.81086    0.68735   1.00
C5       0.29152    0.92075    0.63266   1.00
C5       0.31366    0.88741    0.64669   1.00
H1       0.03960    0.87918    0.63781   1.00
H1       0.16346    0.76556    0.71172   1.00
H1       0.22617    0.96491    0.60774   1.00
H1       0.34096    0.82778    0.67825   1.00
C6       0.33880    0.96702    0.61625   1.00
C6       0.37969    0.88718    0.64333   1.00
H2       0.33468    1.01290    0.61545   1.00
H2       0.37124    0.83620    0.64633   1.00
H2       0.39206    0.98793    0.62037   1.00
H2       0.39407    0.89375    0.62741   1.00
C6       0.32602    0.93114    0.59508   1.00
C6       0.44065    0.94264    0.65609   1.00
H2       0.27123    0.90159    0.59212   1.00
H2       0.42361    0.94300    0.67159   1.00
C6       0.36090    0.97741    0.57615   1.00
C6       0.50697    0.93749    0.65736   1.00
H2       0.34274    0.89357    0.59607   1.00
H2       0.45417    0.99250    0.64983   1.00
C6       0.33174    1.02518    0.57169   1.00
C6       0.49461    0.87285    0.66907   1.00
C6       0.43923    1.02087    0.57882   1.00
C6       0.53564    0.93751    0.63602   1.00
C6       0.34638    0.93089    0.55733   1.00
C6       0.56207    1.00050    0.66910   1.00
H2       0.27633    0.99611    0.57006   1.00
H2       0.47330    0.87075    0.68409   1.00
H2       0.34383    1.06220    0.58380   1.00
H2       0.45942    0.82645    0.66099   1.00
H2       0.35290    1.05377    0.55769   1.00
H2       0.54208    0.87215    0.67109   1.00
H2       0.46351    1.04923    0.56500   1.00
H2       0.58439    0.93883    0.63710   1.00
H2       0.45239    1.05786    0.59102   1.00
H2       0.50078    0.89171    0.62760   1.00
H2       0.46088    0.98857    0.58239   1.00
H2       0.54346    0.98179    0.62730   1.00
H2       0.29163    0.89954    0.55463   1.00
H2       0.54463    1.00252    0.68439   1.00
H2       0.36938    0.96096    0.54366   1.00
H2       0.60934    0.99899    0.67051   1.00
H2       0.36701    0.89685    0.55938   1.00
H2       0.57406    1.04780    0.66135   1.00
