data_IRMOF10_interpen_symm_ligand11cp_label_g_1.

_audit_creation_method             'generated by an auxiliary program of Tobunporous'

_symmetry_space_group_name_H-M     'P 1'
_symmetry_Int_Tables_number        1
_symmetry_cell_setting             triclinic

_cell_length_a                    22.6523
_cell_length_b                    22.6523
_cell_length_c                    65.9502
_cell_angle_alpha                 90.0000
_cell_angle_beta                  90.0000
_cell_angle_gamma                 120.0000

loop_
_atom_site_label
_atom_site_fract_x
_atom_site_fract_y
_atom_site_fract_z
_atom_site_occupancy
O1       0.00000    0.00000    0.57470   1.00
Zn1      0.00000    0.00000    0.54560   1.00
Zn1      0.94843    0.04287    0.58357   1.00
Zn1      0.09443    0.05157    0.58357   1.00
Zn1      0.95713    0.90557    0.58357   1.00
O2       0.93860    0.02610    0.53560   1.00
O2       0.08750    0.06140    0.53560   1.00
O2       0.97390    0.91250    0.53560   1.00
O2       0.91300    0.07160    0.56150   1.00
O2       0.00463    0.12027    0.60077   1.00
O2       0.87413    0.98077    0.60037   1.00
O2       0.15860    0.08700    0.56150   1.00
O2       0.10663    0.12587    0.60037   1.00
O2       0.11563    0.99537    0.60077   1.00
O2       0.92840    0.84140    0.56150   1.00
O2       0.87973    0.88437    0.60077   1.00
O2       0.01923    0.89337    0.60037   1.00
C1       0.91390    0.06020    0.54330   1.00
C1       0.14630    0.08610    0.54330   1.00
C1       0.93980    0.85370    0.54330   1.00
C1       0.06663    0.14397    0.60637   1.00
C1       0.85603    0.92267    0.60637   1.00
C1       0.07733    0.93337    0.60637   1.00
O1       0.00000    0.00000    0.92530   1.00
Zn1      0.00000    0.00000    0.95440   1.00
Zn1      0.04287    0.94843    0.91643   1.00
Zn1      0.05157    0.09443    0.91643   1.00
Zn1      0.90557    0.95713    0.91643   1.00
O2       0.02610    0.93860    0.96440   1.00
O2       0.06140    0.08750    0.96440   1.00
O2       0.91250    0.97390    0.96440   1.00
O2       0.07160    0.91300    0.93850   1.00
O2       0.12027    0.00463    0.89923   1.00
O2       0.98077    0.87413    0.89963   1.00
O2       0.08700    0.15860    0.93850   1.00
O2       0.12587    0.10663    0.89963   1.00
O2       0.99537    0.11563    0.89923   1.00
O2       0.84140    0.92840    0.93850   1.00
O2       0.88437    0.87973    0.89923   1.00
O2       0.89337    0.01923    0.89963   1.00
C1       0.06020    0.91390    0.95670   1.00
C1       0.08610    0.14630    0.95670   1.00
C1       0.85370    0.93980    0.95670   1.00
C1       0.14397    0.06663    0.89363   1.00
C1       0.92267    0.85603    0.89363   1.00
C1       0.93337    0.07733    0.89363   1.00
O1       0.00000    0.00000    0.42530   1.00
Zn1      0.00000    0.00000    0.45440   1.00
Zn1      0.05157    0.95713    0.41643   1.00
Zn1      0.90557    0.94843    0.41643   1.00
Zn1      0.04287    0.09443    0.41643   1.00
O2       0.06140    0.97390    0.46440   1.00
O2       0.91250    0.93860    0.46440   1.00
O2       0.02610    0.08750    0.46440   1.00
O2       0.08700    0.92840    0.43850   1.00
O2       0.99537    0.87973    0.39923   1.00
O2       0.12587    0.01923    0.39963   1.00
O2       0.84140    0.91300    0.43850   1.00
O2       0.89337    0.87413    0.39963   1.00
O2       0.88437    0.00463    0.39923   1.00
O2       0.07160    0.15860    0.43850   1.00
O2       0.12027    0.11563    0.39923   1.00
O2       0.98077    0.10663    0.39963   1.00
C1       0.08610    0.93980    0.45670   1.00
C1       0.85370    0.91390    0.45670   1.00
C1       0.06020    0.14630    0.45670   1.00
C1       0.93337    0.85603    0.39363   1.00
C1       0.14397    0.07733    0.39363   1.00
C1       0.92267    0.06663    0.39363   1.00
O1       0.00000    0.00000    0.07470   1.00
Zn1      0.00000    0.00000    0.04560   1.00
Zn1      0.95713    0.05157    0.08357   1.00
Zn1      0.94843    0.90557    0.08357   1.00
Zn1      0.09443    0.04287    0.08357   1.00
O2       0.97390    0.06140    0.03560   1.00
O2       0.93860    0.91250    0.03560   1.00
O2       0.08750    0.02610    0.03560   1.00
O2       0.92840    0.08700    0.06150   1.00
O2       0.87973    0.99537    0.10077   1.00
O2       0.01923    0.12587    0.10037   1.00
O2       0.91300    0.84140    0.06150   1.00
O2       0.87413    0.89337    0.10037   1.00
O2       0.00463    0.88437    0.10077   1.00
O2       0.15860    0.07160    0.06150   1.00
O2       0.11563    0.12027    0.10077   1.00
O2       0.10663    0.98077    0.10037   1.00
C1       0.93980    0.08610    0.04330   1.00
C1       0.91390    0.85370    0.04330   1.00
C1       0.14630    0.06020    0.04330   1.00
C1       0.85603    0.93337    0.10637   1.00
C1       0.07733    0.14397    0.10637   1.00
C1       0.06663    0.92267    0.10637   1.00
O1       0.66667    0.33333    0.90803   1.00
Zn1      0.66667    0.33333    0.87893   1.00
Zn1      0.61510    0.37620    0.91690   1.00
Zn1      0.76110    0.38490    0.91690   1.00
Zn1      0.62380    0.23890    0.91690   1.00
O2       0.60527    0.35943    0.86893   1.00
O2       0.75417    0.39473    0.86893   1.00
O2       0.64057    0.24583    0.86893   1.00
O2       0.57967    0.40493    0.89483   1.00
O2       0.67130    0.45360    0.93410   1.00
O2       0.54080    0.31410    0.93370   1.00
O2       0.82527    0.42033    0.89483   1.00
O2       0.77330    0.45920    0.93370   1.00
O2       0.78230    0.32870    0.93410   1.00
O2       0.59507    0.17473    0.89483   1.00
O2       0.54640    0.21770    0.93410   1.00
O2       0.68590    0.22670    0.93370   1.00
C1       0.58057    0.39353    0.87663   1.00
C1       0.81297    0.41943    0.87663   1.00
C1       0.60647    0.18703    0.87663   1.00
C1       0.73330    0.47730    0.93970   1.00
C1       0.52270    0.25600    0.93970   1.00
C1       0.74400    0.26670    0.93970   1.00
O1       0.66667    0.33333    0.25863   1.00
Zn1      0.66667    0.33333    0.28773   1.00
Zn1      0.70953    0.28177    0.24977   1.00
Zn1      0.71823    0.42777    0.24977   1.00
Zn1      0.57223    0.29047    0.24977   1.00
O2       0.69277    0.27193    0.29773   1.00
O2       0.72807    0.42083    0.29773   1.00
O2       0.57917    0.30723    0.29773   1.00
O2       0.73827    0.24633    0.27183   1.00
O2       0.78693    0.33797    0.23257   1.00
O2       0.64743    0.20747    0.23297   1.00
O2       0.75367    0.49193    0.27183   1.00
O2       0.79253    0.43997    0.23297   1.00
O2       0.66203    0.44897    0.23257   1.00
O2       0.50807    0.26173    0.27183   1.00
O2       0.55103    0.21307    0.23257   1.00
O2       0.56003    0.35257    0.23297   1.00
C1       0.72687    0.24723    0.29003   1.00
C1       0.75277    0.47963    0.29003   1.00
C1       0.52037    0.27313    0.29003   1.00
C1       0.81063    0.39997    0.22697   1.00
C1       0.58933    0.18937    0.22697   1.00
C1       0.60003    0.41067    0.22697   1.00
O1       0.66667    0.33333    0.75863   1.00
Zn1      0.66667    0.33333    0.78773   1.00
Zn1      0.71823    0.29047    0.74977   1.00
Zn1      0.57223    0.28177    0.74977   1.00
Zn1      0.70953    0.42777    0.74977   1.00
O2       0.72807    0.30723    0.79773   1.00
O2       0.57917    0.27193    0.79773   1.00
O2       0.69277    0.42083    0.79773   1.00
O2       0.75367    0.26173    0.77183   1.00
O2       0.66203    0.21307    0.73257   1.00
O2       0.79253    0.35257    0.73297   1.00
O2       0.50807    0.24633    0.77183   1.00
O2       0.56003    0.20747    0.73297   1.00
O2       0.55103    0.33797    0.73257   1.00
O2       0.73827    0.49193    0.77183   1.00
O2       0.78693    0.44897    0.73257   1.00
O2       0.64743    0.43997    0.73297   1.00
C1       0.75277    0.27313    0.79003   1.00
C1       0.52037    0.24723    0.79003   1.00
C1       0.72687    0.47963    0.79003   1.00
C1       0.60003    0.18937    0.72697   1.00
C1       0.81063    0.41067    0.72697   1.00
C1       0.58933    0.39997    0.72697   1.00
O1       0.66667    0.33333    0.40803   1.00
Zn1      0.66667    0.33333    0.37893   1.00
Zn1      0.62380    0.38490    0.41690   1.00
Zn1      0.61510    0.23890    0.41690   1.00
Zn1      0.76110    0.37620    0.41690   1.00
O2       0.64057    0.39473    0.36893   1.00
O2       0.60527    0.24583    0.36893   1.00
O2       0.75417    0.35943    0.36893   1.00
O2       0.59507    0.42033    0.39483   1.00
O2       0.54640    0.32870    0.43410   1.00
O2       0.68590    0.45920    0.43370   1.00
O2       0.57967    0.17473    0.39483   1.00
O2       0.54080    0.22670    0.43370   1.00
O2       0.67130    0.21770    0.43410   1.00
O2       0.82527    0.40493    0.39483   1.00
O2       0.78230    0.45360    0.43410   1.00
O2       0.77330    0.31410    0.43370   1.00
C1       0.60647    0.41943    0.37663   1.00
C1       0.58057    0.18703    0.37663   1.00
C1       0.81297    0.39353    0.37663   1.00
C1       0.52270    0.26670    0.43970   1.00
C1       0.74400    0.47730    0.43970   1.00
C1       0.73330    0.25600    0.43970   1.00
O1       0.33333    0.66667    0.24137   1.00
Zn1      0.33333    0.66667    0.21227   1.00
Zn1      0.28177    0.70953    0.25023   1.00
Zn1      0.42777    0.71823    0.25023   1.00
Zn1      0.29047    0.57223    0.25023   1.00
O2       0.27193    0.69277    0.20227   1.00
O2       0.42083    0.72807    0.20227   1.00
O2       0.30723    0.57917    0.20227   1.00
O2       0.24633    0.73827    0.22817   1.00
O2       0.33797    0.78693    0.26743   1.00
O2       0.20747    0.64743    0.26703   1.00
O2       0.49193    0.75367    0.22817   1.00
O2       0.43997    0.79253    0.26703   1.00
O2       0.44897    0.66203    0.26743   1.00
O2       0.26173    0.50807    0.22817   1.00
O2       0.21307    0.55103    0.26743   1.00
O2       0.35257    0.56003    0.26703   1.00
C1       0.24723    0.72687    0.20997   1.00
C1       0.47963    0.75277    0.20997   1.00
C1       0.27313    0.52037    0.20997   1.00
C1       0.39997    0.81063    0.27303   1.00
C1       0.18937    0.58933    0.27303   1.00
C1       0.41067    0.60003    0.27303   1.00
O1       0.33333    0.66667    0.59197   1.00
Zn1      0.33333    0.66667    0.62107   1.00
Zn1      0.37620    0.61510    0.58310   1.00
Zn1      0.38490    0.76110    0.58310   1.00
Zn1      0.23890    0.62380    0.58310   1.00
O2       0.35943    0.60527    0.63107   1.00
O2       0.39473    0.75417    0.63107   1.00
O2       0.24583    0.64057    0.63107   1.00
O2       0.40493    0.57967    0.60517   1.00
O2       0.45360    0.67130    0.56590   1.00
O2       0.31410    0.54080    0.56630   1.00
O2       0.42033    0.82527    0.60517   1.00
O2       0.45920    0.77330    0.56630   1.00
O2       0.32870    0.78230    0.56590   1.00
O2       0.17473    0.59507    0.60517   1.00
O2       0.21770    0.54640    0.56590   1.00
O2       0.22670    0.68590    0.56630   1.00
C1       0.39353    0.58057    0.62337   1.00
C1       0.41943    0.81297    0.62337   1.00
C1       0.18703    0.60647    0.62337   1.00
C1       0.47730    0.73330    0.56030   1.00
C1       0.25600    0.52270    0.56030   1.00
C1       0.26670    0.74400    0.56030   1.00
O1       0.33333    0.66667    0.09197   1.00
Zn1      0.33333    0.66667    0.12107   1.00
Zn1      0.38490    0.62380    0.08310   1.00
Zn1      0.23890    0.61510    0.08310   1.00
Zn1      0.37620    0.76110    0.08310   1.00
O2       0.39473    0.64057    0.13107   1.00
O2       0.24583    0.60527    0.13107   1.00
O2       0.35943    0.75417    0.13107   1.00
O2       0.42033    0.59507    0.10517   1.00
O2       0.32870    0.54640    0.06590   1.00
O2       0.45920    0.68590    0.06630   1.00
O2       0.17473    0.57967    0.10517   1.00
O2       0.22670    0.54080    0.06630   1.00
O2       0.21770    0.67130    0.06590   1.00
O2       0.40493    0.82527    0.10517   1.00
O2       0.45360    0.78230    0.06590   1.00
O2       0.31410    0.77330    0.06630   1.00
C1       0.41943    0.60647    0.12337   1.00
C1       0.18703    0.58057    0.12337   1.00
C1       0.39353    0.81297    0.12337   1.00
C1       0.26670    0.52270    0.06030   1.00
C1       0.47730    0.74400    0.06030   1.00
C1       0.25600    0.73330    0.06030   1.00
O1       0.33333    0.66667    0.74137   1.00
Zn1      0.33333    0.66667    0.71227   1.00
Zn1      0.29047    0.71823    0.75023   1.00
Zn1      0.28177    0.57223    0.75023   1.00
Zn1      0.42777    0.70953    0.75023   1.00
O2       0.30723    0.72807    0.70227   1.00
O2       0.27193    0.57917    0.70227   1.00
O2       0.42083    0.69277    0.70227   1.00
O2       0.26173    0.75367    0.72817   1.00
O2       0.21307    0.66203    0.76743   1.00
O2       0.35257    0.79253    0.76703   1.00
O2       0.24633    0.50807    0.72817   1.00
O2       0.20747    0.56003    0.76703   1.00
O2       0.33797    0.55103    0.76743   1.00
O2       0.49193    0.73827    0.72817   1.00
O2       0.44897    0.78693    0.76743   1.00
O2       0.43997    0.64743    0.76703   1.00
C1       0.27313    0.75277    0.70997   1.00
C1       0.24723    0.52037    0.70997   1.00
C1       0.47963    0.72687    0.70997   1.00
C1       0.18937    0.60003    0.77303   1.00
C1       0.41067    0.81063    0.77303   1.00
C1       0.39997    0.58933    0.77303   1.00
C5       0.90998    0.96856    0.49613   1.00
H2       0.87934    0.96357    0.50984   1.00
H2       0.87584    0.95972    0.48299   1.00
C5       0.97277    1.04128    0.49524   1.00
H2       0.95861    1.07806    0.48887   1.00
H2       1.01326    1.04149    0.48562   1.00
O_3      0.93955    0.68832    0.46786   1.00
C4       0.85762    0.69086    0.49957   1.00
C3c      0.85520    0.75114    0.49690   1.00
H1       0.83127    0.75738    0.48352   1.00
C3d      0.88818    0.68334    0.51725   1.00
C3       0.88426    0.80448    0.51119   1.00
O2       0.87264    0.85820    0.50880   1.00
C3       0.91831    0.73688    0.53132   1.00
H1       0.94329    0.72976    0.54429   1.00
C2       0.91698    0.79849    0.52874   1.00
C5       0.98308    0.66394    0.47416   1.00
H2       0.97683    0.62031    0.46473   1.00
H2       0.97345    0.64706    0.49032   1.00
C5       1.05605    0.72210    0.47202   1.00
H2       1.06179    0.76637    0.48099   1.00
H2       1.06528    0.73811    0.45580   1.00
C5       1.10690    0.70060    0.47927   1.00
H2       1.10113    0.65611    0.47047   1.00
H2       1.09926    0.68687    0.49565   1.00
H2       1.15998    0.74327    0.47717   1.00
C5       0.83782    0.57434    0.52924   1.00
C5       0.92662    0.91097    0.49768   1.00
H2       0.79182    0.55759    0.51961   1.00
H2       0.82832    0.59027    0.54434   1.00
H2       0.92958    0.89242    0.48224   1.00
H2       0.97733    0.92976    0.50512   1.00
H2       0.99369    1.06033    0.51074   1.00
H2       0.74834    0.42959    0.52367   1.00
H2       0.75652    0.45537    0.55010   1.00
C2       0.77704    0.53012    0.45559   1.00
C3       0.73409    0.53235    0.47072   1.00
O2       0.67172    0.47554    0.47476   1.00
C3       0.84564    0.58369    0.45480   1.00
H1       0.87935    0.58441    0.44308   1.00
C3a      0.76066    0.58633    0.48488   1.00
H1       0.72818    0.58524    0.49707   1.00
C3b      0.87246    0.63612    0.46929   1.00
C4       0.82999    0.63771    0.48451   1.00
O_3      0.89646    0.62727    0.51986   1.00
C5       0.61885    0.48247    0.46585   1.00
H2       0.61824    0.52832    0.47181   1.00
C5       0.55168    0.41830    0.47129   1.00
H2       0.62452    0.48690    0.44904   1.00
H2       0.53760    0.42380    0.48707   1.00
H2       0.56146    0.37473    0.47144   1.00
C5       0.49334    0.40425    0.45648   1.00
H2       0.48790    0.45025    0.45530   1.00
H2       0.44418    0.36072    0.46187   1.00
H2       0.50290    0.39004    0.44108   1.00
C5       0.84975    0.51442    0.53214   1.00
H2       0.88798    0.52740    0.54445   1.00
H2       0.87289    0.50814    0.51798   1.00
C5       0.78325    0.44796    0.53704   1.00
H2       0.79483    0.40721    0.54112   1.00
C5       0.28659    0.27723    0.57638   1.00
H2       0.23882    0.27690    0.57236   1.00
H2       0.32866    0.32985    0.57328   1.00
C5       0.28519    0.25988    0.59915   1.00
H2       0.30022    0.30574    0.60873   1.00
H2       0.32085    0.24044    0.60209   1.00
O_3      0.42164    0.14960    0.50540   1.00
C4       0.30824    0.16699    0.49927   1.00
C3c      0.30876    0.20761    0.51544   1.00
H1       0.35047    0.25938    0.51692   1.00
C3d      0.25293    0.09998    0.49746   1.00
C3       0.25637    0.18207    0.53006   1.00
O2       0.25602    0.22720    0.54397   1.00
C3       0.20135    0.07398    0.51220   1.00
H1       0.16122    0.02154    0.51058   1.00
C2       0.20146    0.11412    0.52878   1.00
C5       0.40773    0.08303    0.50068   1.00
H2       0.44459    0.08309    0.48946   1.00
H2       0.35524    0.05165    0.49438   1.00
C5       0.41339    0.05050    0.52019   1.00
H2       0.37794    0.05218    0.53159   1.00
H2       0.46615    0.08188    0.52623   1.00
C5       0.39658    -0.02319   0.51654   1.00
H2       0.43148    -0.02529   0.50506   1.00
H2       0.34311    -0.05513   0.51117   1.00
H2       0.40245    -0.04562   0.53087   1.00
C5       0.22328    0.06426    0.46478   1.00
C5       0.29072    0.22688    0.56177   1.00
H2       0.25365    0.11690    0.45867   1.00
H2       0.16988    0.05285    0.46733   1.00
H2       0.34504    0.24365    0.55820   1.00
H2       0.26778    0.17514    0.56884   1.00
H2       0.23272    0.22079    0.60410   1.00
H2       0.25369    0.07953    0.42191   1.00
H2       0.16267    0.03506    0.42712   1.00
C2       0.46980    0.23913    0.45565   1.00
C3       0.41520    0.25161    0.45279   1.00
O2       0.40396    0.27126    0.43405   1.00
C3       0.47118    0.20557    0.47360   1.00
H1       0.51316    0.19683    0.47649   1.00
C3a      0.36295    0.22903    0.46747   1.00
H1       0.31956    0.23551    0.46451   1.00
C3b      0.41805    0.18125    0.48785   1.00
C4       0.36328    0.19276    0.48483   1.00
O_3      0.25256    0.05628    0.48272   1.00
C5       0.42810    0.34202    0.43384   1.00
H2       0.40194    0.35637    0.44557   1.00
C5       0.41278    0.35945    0.41276   1.00
H2       0.48412    0.37154    0.43665   1.00
H2       0.35811    0.34530    0.41224   1.00
H2       0.41904    0.32596    0.40164   1.00
C5       0.45897    0.43517    0.40714   1.00
H2       0.45618    0.46790    0.41922   1.00
H2       0.44258    0.44710    0.39252   1.00
H2       0.51314    0.44804    0.40507   1.00
C5       0.22280    0.01445    0.44919   1.00
H2       0.18330    -0.03814   0.45367   1.00
H2       0.27296    0.01650    0.44985   1.00
C5       0.20963    0.03101    0.42758   1.00
H2       0.20255    -0.01021   0.41699   1.00
C5       0.75167    0.05511    0.58230   1.00
H2       0.74187    0.00248    0.57978   1.00
H2       0.70132    0.05207    0.58095   1.00
C5       0.78154    0.07929    0.60379   1.00
H2       0.74030    0.05904    0.61540   1.00
H2       0.80973    0.13600    0.60448   1.00
O_3      0.87365    0.28065    0.50085   1.00
C4       0.83285    0.14116    0.49929   1.00
C3c      0.79810    0.11301    0.51754   1.00
H1       0.75093    0.11239    0.52067   1.00
C3d      0.89372    0.14057    0.49538   1.00
C3       0.82385    0.08621    0.53211   1.00
O2       0.78300    0.05212    0.54842   1.00
C3       0.92017    0.11512    0.51002   1.00
H1       0.96824    0.11795    0.50665   1.00
C2       0.88606    0.08714    0.52865   1.00
C5       0.93956    0.32265    0.49281   1.00
H2       0.93999    0.35696    0.48061   1.00
H2       0.96078    0.29148    0.48642   1.00
C5       0.98508    0.36636    0.51001   1.00
H2       0.98315    0.33210    0.52244   1.00
H2       0.96378    0.39772    0.51614   1.00
C5       1.05862    0.41206    0.50271   1.00
H2       1.06087    0.44607    0.49020   1.00
H2       1.08074    0.38076    0.49725   1.00
H2       1.09079    0.44470    0.51538   1.00
C5       0.90988    0.12576    0.46203   1.00
C5       0.79834    0.09757    0.56488   1.00
H2       0.85597    0.10882    0.45807   1.00
H2       0.91426    0.07990    0.46554   1.00
H2       0.78789    0.13919    0.56064   1.00
H2       0.85304    0.12210    0.56960   1.00
H2       0.81671    0.06005    0.60805   1.00
H2       0.87680    0.12537    0.41970   1.00
H2       0.91131    0.06978    0.42509   1.00
C2       0.76120    0.23030    0.45543   1.00
C3       0.73724    0.15955    0.45501   1.00
O2       0.70485    0.12163    0.43799   1.00
C3       0.80628    0.26965    0.47117   1.00
H1       0.82415    0.32362    0.47222   1.00
C3a      0.75990    0.13030    0.46979   1.00
H1       0.74416    0.07681    0.46858   1.00
C3b      0.83042    0.24081    0.48546   1.00
C4       0.80739    0.17066    0.48483   1.00
O_3      0.93251    0.17226    0.47836   1.00
C5       0.63368    0.08462    0.44109   1.00
H2       0.62004    0.04922    0.45428   1.00
C5       0.60177    0.04325    0.42178   1.00
H2       0.61325    0.11965    0.44383   1.00
H2       0.60727    -0.00292   0.42214   1.00
H2       0.63269    0.07462    0.40870   1.00
C5       0.52628    0.02299    0.41914   1.00
H2       0.49725    -0.00355   0.43301   1.00
H2       0.50335    -0.01171   0.40591   1.00
H2       0.52072    0.06859    0.41617   1.00
C5       0.95469    0.16236    0.44382   1.00
H2       1.00615    0.16875    0.44645   1.00
H2       0.96134    0.21449    0.44304   1.00
C5       0.92379    0.12382    0.42386   1.00
H2       0.96093    0.14800    0.41128   1.00
C5       0.97150    0.91926    0.00492   1.00
H2       0.96759    0.88772    -0.00846   1.00
H2       0.96365    0.88669    0.01839   1.00
C5       1.04324    0.98355    0.00551   1.00
H2       1.08112    0.97159    0.01226   1.00
H2       1.04197    1.02421    0.01466   1.00
O_3      0.68521    0.94092    0.03117   1.00
C4       0.69088    0.85761    0.00044   1.00
C3c      0.75227    0.85765    0.00349   1.00
H1       0.75940    0.83565    0.01718   1.00
C3d      0.68224    0.88564    -0.01763   1.00
C3       0.80557    0.88671    -0.01081   1.00
O2       0.86062    0.87746    -0.00797   1.00
C3       0.73571    0.91579    -0.03172   1.00
H1       0.72764    0.93881    -0.04502   1.00
C2       0.79841    0.91693    -0.02877   1.00
C5       0.65889    0.98216    0.02422   1.00
H2       0.61469    0.97535    0.03346   1.00
H2       0.64215    0.97057    0.00808   1.00
C5       0.71546    1.05604    0.02587   1.00
H2       0.76034    1.06240    0.01710   1.00
H2       0.73133    1.06721    0.04206   1.00
C5       0.69182    1.10447    0.01790   1.00
H2       0.64672    1.09805    0.02650   1.00
H2       0.67821    1.09493    0.00154   1.00
H2       0.73333    1.15828    0.01964   1.00
C5       0.57321    0.83118    -0.02968   1.00
C5       0.91233    0.93338    0.00284   1.00
H2       0.55775    0.78636    -0.01963   1.00
H2       0.58983    0.82100    -0.04457   1.00
H2       0.89327    0.93708    0.01812   1.00
H2       0.92968    0.98309    -0.00507   1.00
H2       1.06196    1.00330    -0.01011   1.00
H2       0.42910    0.73872    -0.02394   1.00
H2       0.45517    0.74516    -0.05030   1.00
C2       0.52999    0.77696    0.04437   1.00
C3       0.53386    0.73346    0.02975   1.00
O2       0.47830    0.66984    0.02610   1.00
C3       0.58203    0.84626    0.04468   1.00
H1       0.58151    0.88047    0.05601   1.00
C3a      0.58791    0.76012    0.01562   1.00
H1       0.58802    0.72705    0.00380   1.00
C3b      0.63450    0.87308    0.03020   1.00
C4       0.63770    0.83001    0.01549   1.00
O_3      0.62491    0.89151    -0.02067   1.00
C5       0.48718    0.61906    0.03565   1.00
H2       0.53388    0.61953    0.02998   1.00
C5       0.42432    0.55033    0.03061   1.00
H2       0.49140    0.62637    0.05242   1.00
H2       0.43050    0.53522    0.01503   1.00
H2       0.37965    0.55835    0.03009   1.00
C5       0.41202    0.49400    0.04600   1.00
H2       0.45901    0.49042    0.04751   1.00
H2       0.36951    0.44369    0.04092   1.00
H2       0.39714    0.50432    0.06119   1.00
C5       0.51184    0.84046    -0.03307   1.00
H2       0.52375    0.87727    -0.04574   1.00
H2       0.50455    0.86429    -0.01922   1.00
C5       0.44662    0.77236    -0.03760   1.00
H2       0.40478    0.78188    -0.04205   1.00
C5       0.27709    0.28671    -0.07643   1.00
H2       0.27682    0.23896    -0.07241   1.00
H2       0.32970    0.32881    -0.07333   1.00
C5       0.25966    0.28529    -0.09918   1.00
H2       0.30550    0.30036    -0.10877   1.00
H2       0.24016    0.32091    -0.10211   1.00
O_3      0.14945    0.42156    -0.00538   1.00
C4       0.16699    0.30824    0.00073   1.00
C3c      0.20758    0.30880    -0.01545   1.00
H1       0.25933    0.35054    -0.01694   1.00
C3d      0.10001    0.25289    0.00256   1.00
C3       0.18204    0.25641    -0.03007   1.00
O2       0.22716    0.25611    -0.04400   1.00
C3       0.07401    0.20131    -0.01219   1.00
H1       0.02158    0.16114    -0.01056   1.00
C2       0.11412    0.20146    -0.02878   1.00
C5       0.08288    0.40759    -0.00063   1.00
H2       0.08293    0.44443    0.01059   1.00
H2       0.05156    0.35510    0.00566   1.00
C5       0.05027    0.41321    -0.02013   1.00
H2       0.05195    0.37778    -0.03154   1.00
H2       0.08160    0.46598    -0.02618   1.00
C5       -0.02344   0.39633    -0.01646   1.00
H2       -0.02554   0.43121    -0.00498   1.00
H2       -0.05532   0.34286    -0.01109   1.00
H2       -0.04592   0.40217    -0.03079   1.00
C5       0.06439    0.22322    0.03524   1.00
C5       0.22675    0.29079    -0.06179   1.00
H2       0.11705    0.25364    0.04134   1.00
H2       0.05303    0.16983    0.03268   1.00
H2       0.24348    0.34509    -0.05822   1.00
H2       0.17498    0.26780    -0.06885   1.00
H2       0.22059    0.23280    -0.10413   1.00
H2       0.07977    0.25363    0.07811   1.00
H2       0.03535    0.16261    0.07290   1.00
C2       0.23913    0.46979    0.04435   1.00
C3       0.25168    0.41524    0.04719   1.00
O2       0.27141    0.40403    0.06593   1.00
C3       0.20550    0.47114    0.02641   1.00
H1       0.19669    0.51309    0.02353   1.00
C3a      0.22910    0.36299    0.03252   1.00
H1       0.23564    0.31963    0.03547   1.00
C3b      0.18118    0.41801    0.01216   1.00
C4       0.19276    0.36328    0.01517   1.00
O_3      0.05633    0.25247    0.01731   1.00
C5       0.34218    0.42823    0.06612   1.00
H2       0.35653    0.40209    0.05438   1.00
C5       0.35970    0.41294    0.08719   1.00
H2       0.37165    0.48425    0.06331   1.00
H2       0.34560    0.35828    0.08771   1.00
H2       0.32621    0.41916    0.09833   1.00
C5       0.43543    0.45918    0.09280   1.00
H2       0.46814    0.45643    0.08070   1.00
H2       0.44742    0.44282    0.10741   1.00
H2       0.44825    0.51334    0.09487   1.00
C5       0.01460    0.22269    0.05085   1.00
H2       -0.03798   0.18316    0.04637   1.00
H2       0.01660    0.27282    0.05020   1.00
C5       0.03125    0.20955    0.07245   1.00
H2       -0.00995   0.20243    0.08305   1.00
C5       0.05511    0.75167    -0.08230   1.00
H2       0.00248    0.74187    -0.07978   1.00
H2       0.05207    0.70132    -0.08095   1.00
C5       0.07929    0.78154    -0.10379   1.00
H2       0.05904    0.74029    -0.11540   1.00
H2       0.13600    0.80973    -0.10448   1.00
O_3      0.28065    0.87365    -0.00085   1.00
C4       0.14116    0.83285    0.00071   1.00
C3c      0.11301    0.79810    -0.01754   1.00
H1       0.11239    0.75093    -0.02067   1.00
C3d      0.14057    0.89372    0.00462   1.00
C3       0.08621    0.82385    -0.03211   1.00
O2       0.05212    0.78300    -0.04842   1.00
C3       0.11512    0.92017    -0.01002   1.00
H1       0.11795    0.96824    -0.00665   1.00
C2       0.08714    0.88606    -0.02865   1.00
C5       0.32265    0.93956    0.00719   1.00
H2       0.35696    0.93999    0.01939   1.00
H2       0.29148    0.96078    0.01358   1.00
C5       0.36636    0.98508    -0.01001   1.00
H2       0.33210    0.98315    -0.02244   1.00
H2       0.39772    0.96378    -0.01614   1.00
C5       0.41206    1.05862    -0.00271   1.00
H2       0.44607    1.06087    0.00980   1.00
H2       0.38076    1.08074    0.00275   1.00
H2       0.44470    1.09079    -0.01538   1.00
C5       0.12576    0.90988    0.03797   1.00
C5       0.09757    0.79834    -0.06488   1.00
H2       0.10882    0.85597    0.04193   1.00
H2       0.07990    0.91426    0.03446   1.00
H2       0.13919    0.78789    -0.06064   1.00
H2       0.12209    0.85304    -0.06960   1.00
H2       0.06005    0.81671    -0.10805   1.00
H2       0.12537    0.87681    0.08030   1.00
H2       0.06978    0.91131    0.07491   1.00
C2       0.23030    0.76120    0.04457   1.00
C3       0.15955    0.73724    0.04499   1.00
O2       0.12163    0.70485    0.06201   1.00
C3       0.26965    0.80628    0.02883   1.00
H1       0.32362    0.82415    0.02778   1.00
C3a      0.13030    0.75990    0.03021   1.00
H1       0.07681    0.74416    0.03142   1.00
C3b      0.24081    0.83042    0.01454   1.00
C4       0.17066    0.80739    0.01517   1.00
O_3      0.17226    0.93251    0.02164   1.00
C5       0.08462    0.63368    0.05891   1.00
H2       0.04922    0.62004    0.04572   1.00
C5       0.04325    0.60177    0.07822   1.00
H2       0.11965    0.61325    0.05617   1.00
H2       -0.00292   0.60728    0.07786   1.00
H2       0.07462    0.63269    0.09130   1.00
C5       0.02299    0.52628    0.08086   1.00
H2       -0.00355   0.49725    0.06699   1.00
H2       -0.01171   0.50335    0.09409   1.00
H2       0.06859    0.52072    0.08383   1.00
C5       0.16236    0.95469    0.05618   1.00
H2       0.16875    1.00615    0.05355   1.00
H2       0.21449    0.96134    0.05696   1.00
C5       0.12382    0.92379    0.07614   1.00
H2       0.14800    0.96093    0.08872   1.00
C5       0.08420    0.31042    0.41513   1.00
H2       0.11542    0.28768    0.41024   1.00
H2       0.11736    0.36640    0.41328   1.00
C5       0.02046    0.28365    0.40140   1.00
H2       0.03324    0.31256    0.38688   1.00
H2       -0.02015   0.28884    0.40931   1.00
O_3      0.05956    0.35400    0.51868   1.00
C4       0.14239    0.30860    0.50060   1.00
C3c      0.14327    0.32216    0.47979   1.00
H1       0.16599    0.37431    0.47459   1.00
C3d      0.11341    0.24034    0.50702   1.00
C3       0.11420    0.26907    0.46542   1.00
O2       0.12435    0.28643    0.44520   1.00
C3       0.08327    0.18731    0.49280   1.00
H1       0.05952    0.13570    0.49851   1.00
C2       0.08305    0.20010    0.47171   1.00
C5       0.01746    0.30993    0.53415   1.00
H2       0.02406    0.33717    0.54879   1.00
H2       0.02833    0.26762    0.53682   1.00
C5       -0.05609   0.28001    0.52731   1.00
H2       -0.06222   0.25443    0.51239   1.00
H2       -0.06655   0.32264    0.52487   1.00
C5       -0.10544   0.22939    0.54300   1.00
H2       -0.09926   0.25448    0.55797   1.00
H2       -0.09660   0.18558    0.54492   1.00
H2       -0.15899   0.20920    0.53794   1.00
C5       0.16635    0.22562    0.53439   1.00
C5       0.06913    0.29241    0.43763   1.00
H2       0.21162    0.27749    0.53284   1.00
H2       0.17629    0.18874    0.52595   1.00
H2       0.06571    0.33368    0.44585   1.00
H2       0.01904    0.24435    0.43950   1.00
H2       0.00027    0.22901    0.39723   1.00
H2       0.25771    0.28029    0.56861   1.00
H2       0.25063    0.20183    0.55894   1.00
C2       0.22301    0.46736    0.54521   1.00
C3       0.26632    0.44790    0.53556   1.00
O2       0.32948    0.46660    0.54364   1.00
C3       0.15396    0.43564    0.53905   1.00
H1       0.11992    0.45064    0.54577   1.00
C3a      0.23969    0.39662    0.52054   1.00
H1       0.27255    0.37957    0.51413   1.00
C3b      0.12713    0.38314    0.52458   1.00
C4       0.17000    0.36311    0.51522   1.00
O_3      0.10664    0.22402    0.52744   1.00
C5       0.38105    0.52200    0.53273   1.00
H2       0.38099    0.50871    0.51641   1.00
C5       0.44922    0.53880    0.54236   1.00
H2       0.37435    0.56745    0.53367   1.00
H2       0.46395    0.50172    0.53662   1.00
H2       0.44054    0.52964    0.55897   1.00
C5       0.50630    0.61257    0.53817   1.00
H2       0.51058    0.62245    0.52157   1.00
H2       0.55620    0.62107    0.54392   1.00
H2       0.49626    0.65039    0.54605   1.00
C5       0.15608    0.20616    0.55674   1.00
H2       0.11874    0.15061    0.55797   1.00
H2       0.13250    0.23350    0.56420   1.00
C5       0.22360    0.22395    0.56732   1.00
H2       0.21330    0.20272    0.58295   1.00
C5       0.71866    0.71690    0.42542   1.00
H2       0.72720    0.76105    0.41596   1.00
H2       0.66351    0.67890    0.42403   1.00
C5       0.76229    0.68708    0.41718   1.00
H2       0.73682    0.65290    0.40401   1.00
H2       0.77042    0.65763    0.42929   1.00
O_3      0.67980    0.73712    0.52947   1.00
C4       0.69117    0.83366    0.50053   1.00
C3c      0.68253    0.80213    0.48156   1.00
H1       0.63422    0.75772    0.47782   1.00
C3d      0.75421    0.89205    0.50499   1.00
C3       0.73594    0.82651    0.46730   1.00
O2       0.72119    0.79824    0.44819   1.00
C3       0.80791    0.91568    0.49098   1.00
H1       0.85607    0.95916    0.49536   1.00
C2       0.80027    0.88394    0.47182   1.00
C5       0.72677    0.76676    0.54556   1.00
H2       0.70121    0.75408    0.56066   1.00
H2       0.75663    0.82341    0.54408   1.00
C5       0.77529    0.73878    0.54468   1.00
H2       0.79941    0.74976    0.52938   1.00
H2       0.74502    0.68227    0.54637   1.00
C5       0.82981    0.77036    0.56129   1.00
H2       0.80606    0.76000    0.57660   1.00
H2       0.86160    0.82651    0.55920   1.00
H2       0.86388    0.74818    0.56069   1.00
C5       0.74553    0.97057    0.52450   1.00
C5       0.73525    0.74411    0.44716   1.00
H2       0.68969    0.94638    0.52185   1.00
H2       0.77267    1.01132    0.51291   1.00
H2       0.70253    0.70322    0.45816   1.00
H2       0.78959    0.76079    0.45088   1.00
H2       0.81287    0.72830    0.41158   1.00
H2       0.66829    1.00760    0.55126   1.00
H2       0.73422    1.08010    0.53743   1.00
C2       0.53330    0.75742    0.54541   1.00
C3       0.53585    0.80305    0.53038   1.00
O2       0.49949    0.83657    0.53276   1.00
C3       0.58172    0.73535    0.54458   1.00
H1       0.58004    0.69908    0.55555   1.00
C3a      0.58712    0.82674    0.51537   1.00
H1       0.59078    0.86463    0.50467   1.00
C3b      0.63395    0.76068    0.53003   1.00
C4       0.63707    0.80685    0.51529   1.00
O_3      0.76701    0.92186    0.52401   1.00
C5       0.43990    0.80541    0.52078   1.00
H2       0.45241    0.80630    0.50436   1.00
C5       0.40324    0.84603    0.52398   1.00
H2       0.40576    0.75144    0.52549   1.00
H2       0.42866    0.89284    0.51446   1.00
H2       0.41140    0.86341    0.54007   1.00
C5       0.32643    0.80450    0.51909   1.00
H2       0.31911    0.78305    0.50353   1.00
H2       0.30277    0.83730    0.51994   1.00
H2       0.29863    0.76217    0.53022   1.00
C5       0.76174    1.00282    0.54550   1.00
H2       0.81798    1.03671    0.54677   1.00
H2       0.74676    0.96149    0.55693   1.00
C5       0.72440    1.04266    0.54974   1.00
H2       0.74282    1.07122    0.56423   1.00
C5       0.28098    0.99763    0.42473   1.00
H2       0.23617    0.96204    0.41549   1.00
H2       0.31831    0.97965    0.42327   1.00
C5       0.31138    1.07082    0.41622   1.00
H2       0.34480    1.07844    0.40293   1.00
H2       0.34177    1.10876    0.42815   1.00
O_3      0.26482    0.94306    0.52898   1.00
C4       0.16633    0.85751    0.50053   1.00
C3c      0.19709    0.87922    0.48142   1.00
H1       0.24088    0.87437    0.47756   1.00
C3d      0.10873    0.86337    0.50515   1.00
C3       0.17272    0.90825    0.46715   1.00
O2       0.20009    0.92055    0.44794   1.00
C3       0.08514    0.89346    0.49113   1.00
H1       0.04231    0.89910    0.49562   1.00
C2       0.11611    0.91636    0.47181   1.00
C5       0.23647    0.96175    0.54511   1.00
H2       0.24953    0.94921    0.56021   1.00
H2       0.17978    0.93561    0.54385   1.00
C5       0.26544    1.03836    0.54395   1.00
H2       0.25406    1.05111    0.52865   1.00
H2       0.32198    1.06394    0.54541   1.00
C5       0.23528    1.06276    0.56059   1.00
H2       0.24605    1.04977    0.57590   1.00
H2       0.17911    1.03905    0.55872   1.00
H2       0.25817    1.11906    0.55977   1.00
C5       0.03033    0.77764    0.52510   1.00
C5       0.25485    0.98836    0.44658   1.00
H2       0.05368    0.74522    0.52247   1.00
H2       -0.01084   0.76408    0.51366   1.00
H2       0.29603    0.99639    0.45743   1.00
H2       0.23910    1.02676    0.45024   1.00
H2       0.27040    1.08069    0.41071   1.00
H2       -0.00703   0.66425    0.55226   1.00
H2       -0.07966   0.65823    0.53865   1.00
C2       0.24267    0.77595    0.54540   1.00
C3       0.19601    0.73261    0.53061   1.00
O2       0.16173    0.66283    0.53327   1.00
C3       0.26568    0.84660    0.54433   1.00
H1       0.30273    0.88136    0.55511   1.00
C3a      0.17228    0.76013    0.51560   1.00
H1       0.13364    0.72578    0.50510   1.00
C3b      0.24033    0.87349    0.52978   1.00
C4       0.19315    0.83021    0.51528   1.00
O_3      0.07977    0.84757    0.52429   1.00
C5       0.19159    0.63310    0.52128   1.00
H2       0.19014    0.64411    0.50483   1.00
C5       0.15019    0.55602    0.52479   1.00
H2       0.24565    0.65240    0.52578   1.00
H2       0.10297    0.53481    0.51545   1.00
H2       0.13355    0.54773    0.54095   1.00
C5       0.19055    0.51953    0.51987   1.00
H2       0.21132    0.53273    0.50422   1.00
H2       0.15713    0.46320    0.52096   1.00
H2       0.23328    0.53398    0.53085   1.00
C5       -0.00092   0.76296    0.54623   1.00
H2       -0.03409   0.78611    0.54753   1.00
H2       0.04103    0.78934    0.55747   1.00
C5       -0.04151   0.68599    0.55078   1.00
H2       -0.06932   0.67689    0.56537   1.00
C5       0.04890    0.13272    1.00220   1.00
H2       0.01832    0.07635    1.00354   1.00
H2       0.04848    0.14422    0.98584   1.00
C5       0.01521    0.16543    1.01489   1.00
H2       -0.02767   0.16465    1.00639   1.00
H2       0.05351    0.21916    1.01866   1.00
O_3      0.40228    0.28209    0.99936   1.00
C4       0.30860    0.14107    0.99938   1.00
C3c      0.24462    0.13444    0.99542   1.00
H1       0.23531    0.15086    0.98098   1.00
C3d      0.31937    0.11846    1.01819   1.00
C3       0.19220    0.10761    1.01003   1.00
O2       0.12856    0.09498    1.00419   1.00
C3       0.26771    0.09293    1.03292   1.00
H1       0.27914    0.07848    1.04738   1.00
C2       0.20296    0.08656    1.02925   1.00
C5       0.45239    0.30152    1.01462   1.00
H2       0.50513    0.33008    1.00835   1.00
H2       0.44677    0.25609    1.02295   1.00
C5       0.44288    0.34758    1.02939   1.00
H2       0.38957    0.31972    1.03522   1.00
H2       0.44923    0.39305    1.02095   1.00
C5       0.49400    0.36920    1.04695   1.00
H2       0.54735    0.39664    1.04122   1.00
H2       0.48614    0.32401    1.05581   1.00
H2       0.48727    0.40404    1.05734   1.00
C5       0.38918    0.07293    1.01656   1.00
C5       0.12111    0.15187    1.00883   1.00
H2       0.38529    0.06843    0.99975   1.00
H2       0.34932    0.02389    1.02334   1.00
H2       0.15958    0.19764    1.00032   1.00
H2       0.12841    0.16498    1.02535   1.00
H2       -0.00715   0.13642    1.02924   1.00
H2       0.48884    0.05211    0.99530   1.00
H2       0.43871    -0.01566   1.01327   1.00
C2       0.47246    0.22928    0.95649   1.00
C3       0.42397    0.15904    0.95553   1.00
O2       0.43743    0.11533    0.94449   1.00
C3       0.46343    0.26963    0.97118   1.00
H1       0.49866    0.32387    0.97196   1.00
C3a      0.36924    0.13066    0.96943   1.00
H1       0.33478    0.07616    0.96925   1.00
C3b      0.41020    0.24087    0.98540   1.00
C4       0.36264    0.17086    0.98463   1.00
O_3      0.38297    0.12859    1.02342   1.00
C5       0.40238    0.09943    0.92581   1.00
H2       0.34611    0.07455    0.92814   1.00
C5       0.41894    0.05013    0.91469   1.00
H2       0.41938    0.14618    0.91645   1.00
H2       0.38643    -0.00189   0.92108   1.00
H2       0.47268    0.06524    0.91838   1.00
C5       0.40899    0.04974    0.89154   1.00
H2       0.35673    0.03989    0.88818   1.00
H2       0.41591    0.00933    0.88419   1.00
H2       0.44734    0.09925    0.88453   1.00
C5       0.45918    0.08567    1.02296   1.00
H2       0.45887    0.07842    1.03968   1.00
H2       0.49717    0.14009    1.01982   1.00
C5       0.47926    0.03869    1.01173   1.00
H2       0.52705    0.04435    1.01826   1.00
C5       0.70109    0.74011    1.06730   1.00
H2       0.73828    0.74249    1.07872   1.00
H2       0.65733    0.68713    1.06791   1.00
C5       0.67778    0.79158    1.07303   1.00
H2       0.63730    0.76994    1.08486   1.00
H2       0.65766    0.80467    1.05940   1.00
O_3      0.75691    0.69352    0.96623   1.00
C4       0.83357    0.69107    0.99950   1.00
C3c      0.79575    0.68711    1.01684   1.00
H1       0.74634    0.64249    1.01931   1.00
C3d      0.89826    0.74923    0.99672   1.00
C3       0.82034    0.74066    1.03107   1.00
O2       0.78442    0.72966    1.04884   1.00
C3       0.92233    0.80319    1.01066   1.00
H1       0.97115    0.84778    1.00752   1.00
C2       0.88441    0.80034    1.02816   1.00
C5       0.79800    0.73880    0.95084   1.00
H2       0.78882    0.71319    0.93579   1.00
H2       0.85327    0.76187    0.95455   1.00
C5       0.78025    0.79508    0.94928   1.00
H2       0.78759    0.81942    0.96446   1.00
H2       0.72514    0.77154    0.94539   1.00
C5       0.82453    0.84812    0.93331   1.00
H2       0.81781    0.82407    0.91814   1.00
H2       0.87940    0.87334    0.93755   1.00
H2       0.80980    0.88802    0.93208   1.00
C5       0.97587    0.72730    0.98159   1.00
C5       0.73746    0.75320    1.04683   1.00
H2       0.94392    0.67144    0.98415   1.00
H2       1.01209    0.75013    0.99454   1.00
H2       0.69996    0.72442    1.03457   1.00
H2       0.76285    0.80860    1.04286   1.00
H2       0.72075    0.83929    1.07960   1.00
H2       1.00805    0.63843    0.95861   1.00
H2       1.07822    0.69781    0.97457   1.00
C2       0.75825    0.53343    0.95456   1.00
C3       0.79346    0.52928    0.97168   1.00
O2       0.81880    0.48511    0.97178   1.00
C3       0.74584    0.58867    0.95325   1.00
H1       0.71750    0.59236    0.94060   1.00
C3a      0.81676    0.58064    0.98665   1.00
H1       0.84700    0.57881    0.99907   1.00
C3b      0.77097    0.64080    0.96783   1.00
C4       0.80688    0.63717    0.98468   1.00
O_3      0.93523    0.75790    0.97916   1.00
C5       0.77603    0.42650    0.98329   1.00
H2       0.77193    0.44003    0.99931   1.00
C5       0.80807    0.38088    0.98294   1.00
H2       0.72386    0.39837    0.97662   1.00
H2       0.85036    0.40089    0.99421   1.00
H2       0.83184    0.38660    0.96775   1.00
C5       0.75616    0.30536    0.98729   1.00
H2       0.72909    0.30118    1.00175   1.00
H2       0.78226    0.27491    0.98860   1.00
H2       0.71821    0.28208    0.97472   1.00
C5       1.01641    0.73920    0.96211   1.00
H2       1.05658    0.79399    0.96140   1.00
H2       0.98155    0.72945    0.94903   1.00
C5       1.04808    0.69295    0.96071   1.00
H2       1.08291    0.70791    0.94744   1.00
C5       0.99703    0.28066    1.07537   1.00
H2       0.96145    0.23576    1.08458   1.00
H2       0.97893    0.31790    1.07683   1.00
C5       1.07018    0.31115    1.08392   1.00
H2       1.07764    0.34446    1.09723   1.00
H2       1.10817    0.34168    1.07202   1.00
O_3      0.94311    0.26510    0.97109   1.00
C4       0.85751    0.16633    0.99947   1.00
C3c      0.87904    0.19698    1.01860   1.00
H1       0.87406    0.24067    1.02247   1.00
C3d      0.86355    0.10884    0.99483   1.00
C3       0.90808    0.17261    1.03287   1.00
O2       0.92021    0.19984    1.05210   1.00
C3       0.89364    0.08526    1.00885   1.00
H1       0.89941    0.04252    1.00435   1.00
C2       0.91637    0.11611    1.02819   1.00
C5       0.96199    0.23694    0.95496   1.00
H2       0.94951    0.25005    0.93986   1.00
H2       0.93595    0.18024    0.95618   1.00
C5       1.03862    0.26604    0.95616   1.00
H2       1.05132    0.25460    0.97146   1.00
H2       1.06411    0.32259    0.95473   1.00
C5       1.06323    0.23610    0.93952   1.00
H2       1.05030    0.24692    0.92420   1.00
H2       1.03961    0.17992    0.94135   1.00
H2       1.11954    0.25909    0.94036   1.00
C5       0.77803    0.03047    0.97482   1.00
C5       0.98796    0.25469    1.05351   1.00
H2       0.74550    0.05369    0.97745   1.00
H2       0.76448    -0.01076   0.98623   1.00
H2       0.99597    0.29592    1.04267   1.00
H2       1.02646    0.23908    1.04985   1.00
H2       1.08012    0.27021    1.08942   1.00
H2       0.66477    -0.00694   0.94760   1.00
H2       0.65883    -0.07959   0.96118   1.00
C2       0.77596    0.24269    0.95460   1.00
C3       0.73259    0.19588    0.96935   1.00
O2       0.66282    0.16149    0.96666   1.00
C3       0.84663    0.26582    0.95570   1.00
H1       0.88141    0.30298    0.94496   1.00
C3a      0.76010    0.17214    0.98437   1.00
H1       0.72573    0.13340    0.99484   1.00
C3b      0.87353    0.24047    0.97026   1.00
C4       0.83021    0.19315    0.98472   1.00
O_3      0.84792    0.08001    0.97567   1.00
C5       0.63291    0.19116    0.97865   1.00
H2       0.64382    0.18962    0.99510   1.00
C5       0.55585    0.14965    0.97509   1.00
H2       0.65213    0.24523    0.97417   1.00
H2       0.53467    0.10237    0.98440   1.00
H2       0.54770    0.13312    0.95892   1.00
C5       0.51919    0.18984    0.98001   1.00
H2       0.53225    0.21051    0.99568   1.00
H2       0.46288    0.15633    0.97889   1.00
H2       0.53363    0.23263    0.96906   1.00
C5       0.76354    -0.00064   0.95367   1.00
H2       0.78681    -0.03371   0.95236   1.00
H2       0.78993    0.04140    0.94245   1.00
C5       0.68661    -0.04134   0.94907   1.00
H2       0.67766    -0.06903   0.93446   1.00
C5       0.64449    1.04126    0.91161   1.00
H2       0.69362    1.08777    0.90797   1.00
H2       0.65302    0.99762    0.90904   1.00
C5       0.62598    1.04370    0.93408   1.00
H2       0.65392    1.02684    0.94427   1.00
H2       0.57017    1.00998    0.93641   1.00
O_3      0.39161    0.91557    0.83753   1.00
C4       0.52544    1.02507    0.83260   1.00
C3c      0.56226    1.02266    0.84942   1.00
H1       0.56972    0.97944    0.85140   1.00
C3d      0.51714    1.08230    0.83014   1.00
C3       0.58908    1.07509    0.86402   1.00
O2       0.63147    1.07327    0.87866   1.00
C3       0.54267    1.13397    0.84486   1.00
H1       0.53296    1.17568    0.84270   1.00
C2       0.57938    1.13198    0.86207   1.00
C5       0.34174    0.93243    0.83183   1.00
H2       0.30557    0.89644    0.82033   1.00
H2       0.36580    0.98508    0.82546   1.00
C5       0.30169    0.92873    0.85075   1.00
H2       0.33808    0.96327    0.86245   1.00
H2       0.27738    0.87582    0.85687   1.00
C5       0.24771    0.94879    0.84603   1.00
H2       0.21147    0.91480    0.83425   1.00
H2       0.27210    1.00242    0.84058   1.00
H2       0.21796    0.94433    0.85993   1.00
C5       0.51713    1.11269    0.79716   1.00
C5       0.59324    1.03965    0.89615   1.00
H2       0.53806    1.08040    0.79167   1.00
H2       0.56037    1.16530    0.79995   1.00
H2       0.55443    0.98588    0.89243   1.00
H2       0.56545    1.06466    0.90256   1.00
H2       0.64102    1.09681    0.93880   1.00
H2       0.50662    1.08194    0.75434   1.00
H2       0.55584    1.17287    0.75955   1.00
C2       0.43609    0.86373    0.78892   1.00
C3       0.50450    0.91624    0.78671   1.00
O2       0.53764    0.92604    0.76839   1.00
C3       0.39961    0.86423    0.80629   1.00
H1       0.34774    0.82381    0.80869   1.00
C3a      0.53406    0.96839    0.80141   1.00
H1       0.58518    1.01029    0.79891   1.00
C3b      0.42844    0.91732    0.82055   1.00
C4       0.49611    0.97005    0.81817   1.00
O_3      0.47699    1.08474    0.81471   1.00
C5       0.58178    0.89896    0.76915   1.00
H2       0.62095    0.92381    0.78131   1.00
C5       0.61726    0.91282    0.74851   1.00
H2       0.55277    0.84294    0.77199   1.00
H2       0.65953    0.96676    0.74819   1.00
H2       0.57976    0.90831    0.73680   1.00
C5       0.64438    0.86397    0.74376   1.00
H2       0.67745    0.86514    0.75638   1.00
H2       0.67471    0.87920    0.72948   1.00
H2       0.60172    0.81055    0.74147   1.00
C5       0.47127    1.11554    0.78077   1.00
H2       0.45996    1.15669    0.78471   1.00
H2       0.42183    1.06659    0.78106   1.00
C5       0.50376    1.12733    0.75956   1.00
H2       0.47234    1.13622    0.74837   1.00
C5       -0.02991   0.58173    0.91562   1.00
H2       -0.07276   0.59151    0.91310   1.00
H2       0.01738    0.63208    0.91427   1.00
C5       -0.03559   0.55189    0.93712   1.00
H2       -0.01462   0.59314    0.94872   1.00
H2       -0.00706   0.52371    0.93781   1.00
O_3      0.07370    0.45972    0.83419   1.00
C4       -0.02502   0.50048    0.83262   1.00
C3c      -0.01843   0.53525    0.85087   1.00
H1       0.02811    0.58243    0.85399   1.00
C3d      -0.08647   0.43960    0.82871   1.00
C3       -0.07098   0.50949    0.86544   1.00
O2       -0.06423   0.55035    0.88174   1.00
C3       -0.13837   0.41315    0.84335   1.00
H1       -0.18360   0.36506    0.83999   1.00
C2       -0.13225   0.44727    0.86198   1.00
C5       0.04981    0.39381    0.82615   1.00
H2       0.08370    0.39338    0.81396   1.00
H2       -0.00258   0.37257    0.81977   1.00
C5       0.04802    0.34831    0.84336   1.00
H2       0.01569    0.35025    0.85579   1.00
H2       0.10068    0.36964    0.84949   1.00
C5       0.02020    0.27477    0.83607   1.00
H2       0.05197    0.27252    0.82357   1.00
H2       -0.03323   0.25263    0.83060   1.00
H2       0.02069    0.24262    0.84875   1.00
C5       -0.11744   0.42339    0.79536   1.00
C5       -0.03412   0.53505    0.89820   1.00
H2       -0.08049   0.47730    0.79140   1.00
H2       -0.16769   0.41900    0.79887   1.00
H2       0.01796    0.54551    0.89397   1.00
H2       -0.06427   0.48035    0.90293   1.00
H2       -0.09001   0.51670    0.94138   1.00
H2       -0.08477   0.45643    0.75303   1.00
H2       -0.17486   0.42191    0.75842   1.00
C2       0.13578    0.57213    0.78876   1.00
C3       0.08896    0.59607    0.78833   1.00
O2       0.08342    0.62843    0.77132   1.00
C3       0.13006    0.52707    0.80450   1.00
H1       0.16617    0.50922    0.80556   1.00
C3a      0.03705    0.57340    0.80312   1.00
H1       -0.00071   0.58913    0.80190   1.00
C3b      0.07708    0.50293    0.81879   1.00
C4       0.02994    0.52594    0.81816   1.00
O_3      -0.09355   0.40080    0.81170   1.00
C5       0.11756    0.69960    0.77440   1.00
H2       0.09579    0.71325    0.78759   1.00
C5       0.10810    0.73149    0.75509   1.00
H2       0.17302    0.72005    0.77714   1.00
H2       0.05641    0.72596    0.75545   1.00
H2       0.10855    0.70056    0.74202   1.00
C5       0.16330    0.80698    0.75244   1.00
H2       0.16578    0.83602    0.76631   1.00
H2       0.15152    0.82989    0.73921   1.00
H2       0.21447    0.81256    0.74947   1.00
C5       -0.12564   0.37857    0.77715   1.00
H2       -0.17070   0.32710    0.77979   1.00
H2       -0.08014   0.37194    0.77638   1.00
C5       -0.13329   0.40944    0.75720   1.00
H2       -0.14624   0.37229    0.74462   1.00
C5       0.41780    0.38768    0.91555   1.00
H2       0.40816    0.33511    0.91301   1.00
H2       0.36739    0.38450    0.91418   1.00
C5       0.44746    0.41173    0.93707   1.00
H2       0.40612    0.39130    0.94864   1.00
H2       0.47552    0.46844    0.93780   1.00
O_3      0.53996    0.61389    0.83426   1.00
C4       0.49952    0.47449    0.83262   1.00
C3c      0.46465    0.44613    0.85084   1.00
H1       0.41739    0.44536    0.85395   1.00
C3d      0.56051    0.47411    0.82874   1.00
C3       0.49040    0.41934    0.86541   1.00
O2       0.44946    0.38505    0.88169   1.00
C3       0.58696    0.44866    0.84338   1.00
H1       0.63512    0.45165    0.84004   1.00
C2       0.55273    0.42047    0.86198   1.00
C5       0.60591    0.65608    0.82627   1.00
H2       0.60634    0.69044    0.81409   1.00
H2       0.62730    0.62506    0.81989   1.00
C5       0.65123    0.69972    0.84352   1.00
H2       0.64929    0.66541    0.85593   1.00
H2       0.62975    0.73092    0.84965   1.00
C5       0.72480    0.74563    0.83628   1.00
H2       0.72706    0.77970    0.82378   1.00
H2       0.74709    0.71448    0.83081   1.00
H2       0.75681    0.77821    0.84898   1.00
C5       0.57701    0.45964    0.79539   1.00
C5       0.46455    0.43034    0.89817   1.00
H2       0.52311    0.44259    0.79140   1.00
H2       0.58151    0.41382    0.79888   1.00
H2       0.45400    0.47191    0.89395   1.00
H2       0.51922    0.45496    0.90293   1.00
H2       0.48271    0.39259    0.94134   1.00
H2       0.54424    0.45948    0.75304   1.00
H2       0.57891    0.40403    0.75843   1.00
C2       0.42786    0.56364    0.78876   1.00
C3       0.40408    0.49292    0.78830   1.00
O2       0.37190    0.45510    0.77125   1.00
C3       0.47277    0.60294    0.80454   1.00
H1       0.49050    0.65687    0.80563   1.00
C3a      0.42674    0.46367    0.80308   1.00
H1       0.41115    0.41022    0.80184   1.00
C3b      0.49691    0.57410    0.81883   1.00
C4       0.47406    0.50399    0.81816   1.00
O_3      0.59940    0.50600    0.81175   1.00
C5       0.30071    0.41791    0.77429   1.00
H2       0.28704    0.38242    0.78746   1.00
C5       0.26902    0.37667    0.75495   1.00
H2       0.28012    0.45280    0.77704   1.00
H2       0.27467    0.33058    0.75529   1.00
H2       0.30001    0.40818    0.74190   1.00
C5       0.19351    0.35624    0.75226   1.00
H2       0.16440    0.32954    0.76611   1.00
H2       0.17075    0.32162    0.73901   1.00
H2       0.18783    0.40178    0.74931   1.00
C5       0.62194    0.49645    0.77722   1.00
H2       0.67343    0.50297    0.77988   1.00
H2       0.62845    0.54854    0.77647   1.00
C5       0.59127    0.45804    0.75723   1.00
H2       0.62849    0.48240    0.74468   1.00
C5       0.64017    0.40458    0.34071   1.00
H2       0.66102    0.37233    0.33521   1.00
H2       0.64166    0.40289    0.35753   1.00
C5       0.68557    0.47852    0.33303   1.00
H2       0.73145    0.50670    0.34281   1.00
H2       0.65617    0.50588    0.33308   1.00
O_3      0.28730    0.25987    0.34377   1.00
C4       0.35791    0.19086    0.33388   1.00
C3c      0.42597    0.23467    0.33959   1.00
H1       0.43848    0.24735    0.35540   1.00
C3d      0.34283    0.17421    0.31322   1.00
C3       0.47862    0.26349    0.32507   1.00
O2       0.54477    0.29907    0.33199   1.00
C3       0.39494    0.20384    0.29870   1.00
H1       0.38057    0.19147    0.28297   1.00
C2       0.46394    0.24884    0.30418   1.00
C5       0.23835    0.25105    0.32901   1.00
H2       0.18654    0.23100    0.33568   1.00
H2       0.23505    0.21521    0.31686   1.00
C5       0.26053    0.32036    0.31966   1.00
H2       0.31308    0.34126    0.31350   1.00
H2       0.26303    0.35554    0.33189   1.00
C5       0.21119    0.31498    0.30287   1.00
H2       0.15852    0.29370    0.30888   1.00
H2       0.21045    0.28175    0.29032   1.00
H2       0.22739    0.36635    0.29652   1.00
C5       0.25612    0.06572    0.30763   1.00
C5       0.56618    0.36928    0.33332   1.00
H2       0.25776    0.04975    0.32347   1.00
H2       0.28927    0.05375    0.29798   1.00
H2       0.53363    0.37748    0.34437   1.00
H2       0.56272    0.39116    0.31845   1.00
H2       0.70483    0.47934    0.31736   1.00
H2       0.14047    -0.05903   0.32204   1.00
H2       0.18170    -0.07233   0.30027   1.00
C2       0.19461    0.10775    0.37702   1.00
C3       0.23170    0.07409    0.37309   1.00
O2       0.20609    0.00715    0.37893   1.00
C3       0.21498    0.17058    0.36717   1.00
H1       0.18877    0.19848    0.37025   1.00
C3a      0.28644    0.10261    0.35920   1.00
H1       0.31181    0.07431    0.35548   1.00
C3b      0.26802    0.19771    0.35288   1.00
C4       0.30416    0.16366    0.34875   1.00
O_3      0.27610    0.13550    0.30665   1.00
C5       0.23904    0.00395    0.39672   1.00
H2       0.29517    0.02747    0.39432   1.00
C5       0.20878    -0.07159   0.40198   1.00
H2       0.23011    0.03065    0.40953   1.00
H2       0.23320    -0.09325   0.39213   1.00
H2       0.15379    -0.09803   0.39775   1.00
C5       0.21737    -0.08358   0.42454   1.00
H2       0.27195    -0.05257   0.42889   1.00
H2       0.20000    -0.13833   0.42742   1.00
H2       0.18594    -0.07003   0.43451   1.00
C5       0.18308    0.02535    0.29993   1.00
H2       0.18338    0.03244    0.28320   1.00
H2       0.15352    0.04772    0.30667   1.00
C5       0.14948    -0.05082   0.30537   1.00
H2       0.09914    -0.07972   0.29775   1.00
C5       0.59640    0.37147    0.33484   1.00
H2       0.57481    0.37846    0.32052   1.00
H2       0.57017    0.38241    0.34728   1.00
C5       0.58144    0.29702    0.33625   1.00
H2       0.52864    0.26262    0.34181   1.00
H2       0.61822    0.29393    0.34678   1.00
O_3      0.90860    0.63911    0.36731   1.00
C4       0.83350    0.64249    0.33375   1.00
C3c      0.76842    0.58464    0.33559   1.00
H1       0.73637    0.58033    0.34831   1.00
C3d      0.87407    0.64756    0.31691   1.00
C3       0.74405    0.53124    0.32132   1.00
O2       0.67696    0.48036    0.32275   1.00
C3       0.85048    0.59389    0.30289   1.00
H1       0.88435    0.59897    0.29061   1.00
C2       0.78509    0.53469    0.30464   1.00
C5       0.97680    0.65948    0.36234   1.00
H2       1.01398    0.70191    0.37216   1.00
H2       0.98814    0.67642    0.34621   1.00
C5       0.98640    0.59830    0.36541   1.00
H2       0.94796    0.55528    0.35603   1.00
H2       0.97557    0.58223    0.38160   1.00
C5       1.05885    0.61538    0.35962   1.00
H2       1.09751    0.65861    0.36883   1.00
H2       1.06889    0.62914    0.34328   1.00
H2       1.06535    0.57053    0.36239   1.00
C5       0.94058    0.75607    0.30518   1.00
C5       0.67214    0.42572    0.33442   1.00
H2       0.91182    0.77546    0.31394   1.00
H2       0.91797    0.74141    0.28969   1.00
H2       0.69111    0.44337    0.35013   1.00
H2       0.70289    0.40404    0.32792   1.00
H2       0.58490    0.27719    0.32102   1.00
H2       1.00301    0.90176    0.31053   1.00
H2       0.98943    0.87637    0.28401   1.00
C2       0.91346    0.80293    0.37783   1.00
C3       0.87288    0.80385    0.36171   1.00
O2       0.87243    0.86297    0.35698   1.00
C3       0.92388    0.74649    0.37951   1.00
H1       0.95321    0.74340    0.39198   1.00
C3a      0.84543    0.75000    0.34751   1.00
H1       0.81775    0.75336    0.33462   1.00
C3b      0.89834    0.69412    0.36500   1.00
C4       0.85889    0.69562    0.34882   1.00
O_3      0.94042    0.70095    0.31521   1.00
C5       0.81276    0.86006    0.36456   1.00
H2       0.76600    0.81596    0.35801   1.00
C5       0.81556    0.92660    0.35841   1.00
H2       0.81034    0.85539    0.38141   1.00
H2       0.79946    0.92231    0.34227   1.00
H2       0.86997    0.96784    0.35903   1.00
C5       0.77116    0.94427    0.37201   1.00
H2       0.71821    0.90038    0.37248   1.00
H2       0.76995    0.98967    0.36606   1.00
H2       0.79199    0.95726    0.38778   1.00
C5       1.01447    0.81290    0.30333   1.00
H2       1.04019    0.79769    0.29176   1.00
H2       1.04041    0.81729    0.31807   1.00
C5       1.02019    0.88160    0.29776   1.00
H2       1.07418    0.91999    0.29447   1.00
C5       0.76349    0.39637    0.33637   1.00
H2       0.79341    0.42054    0.32243   1.00
H2       0.79876    0.42205    0.34926   1.00
C5       0.70187    0.40815    0.33746   1.00
H2       0.71761    0.45981    0.34354   1.00
H2       0.66156    0.36913    0.34742   1.00
O_3      0.72827    0.08547    0.36617   1.00
C4       0.80903    0.16654    0.33376   1.00
C3c      0.81324    0.23017    0.33613   1.00
H1       0.83859    0.26108    0.34928   1.00
C3d      0.77664    0.12750    0.31638   1.00
C3       0.78419    0.25448    0.32185   1.00
O2       0.79753    0.32052    0.32390   1.00
C3       0.74652    0.15097    0.30232   1.00
H1       0.72012    0.11818    0.28960   1.00
C2       0.74966    0.21486    0.30461   1.00
C5       0.68311    0.01738    0.36035   1.00
H2       0.68898    -0.01993   0.36992   1.00
H2       0.69127    0.00861    0.34419   1.00
C5       0.61089    0.00447    0.36284   1.00
H2       0.60560    0.04299    0.35372   1.00
H2       0.60311    0.01276    0.37906   1.00
C5       0.55833    -0.06799   0.35612   1.00
H2       0.56364    -0.10670   0.36507   1.00
H2       0.56454    -0.07555   0.33975   1.00
H2       0.50585    -0.07697   0.35847   1.00
C5       0.82394    0.06592    0.30446   1.00
C5       0.74503    0.32152    0.33523   1.00
H2       0.87077    0.09503    0.31377   1.00
H2       0.83290    0.09032    0.28921   1.00
H2       0.74265    0.30094    0.35078   1.00
H2       0.69365    0.28999    0.32814   1.00
H2       0.68007    0.40567    0.32206   1.00
H2       0.91117    0.00800    0.30993   1.00
H2       0.90168    0.02411    0.28345   1.00
C2       0.88957    0.08645    0.37778   1.00
C3       0.93204    0.12997    0.36227   1.00
O2       0.99343    0.13366    0.35796   1.00
C3       0.82157    0.07310    0.37890   1.00
H1       0.78828    0.04143    0.39090   1.00
C3a      0.90553    0.15740    0.34810   1.00
H1       0.93753    0.18744    0.33564   1.00
C3b      0.79474    0.09868    0.36440   1.00
C4       0.83671    0.14107    0.34882   1.00
O_3      0.76661    0.06236    0.31409   1.00
C5       1.04777    0.19348    0.36639   1.00
H2       1.04916    0.24009    0.36022   1.00
C5       1.11373    0.19436    0.36068   1.00
H2       1.04335    0.19360    0.38322   1.00
H2       1.12701    0.21266    0.34476   1.00
H2       1.10269    0.14058    0.36081   1.00
C5       1.17348    0.23875    0.37505   1.00
H2       1.18028    0.29079    0.37597   1.00
H2       1.22174    0.24276    0.36944   1.00
H2       1.16454    0.21606    0.39059   1.00
C5       0.81010    -0.00674   0.30194   1.00
H2       0.77085    -0.03220   0.28989   1.00
H2       0.78751    -0.03490   0.31632   1.00
C5       0.87535    -0.00881   0.29678   1.00
H2       0.86227    -0.06179   0.29298   1.00
C5       0.84694    0.64447    0.74708   1.00
H2       0.86352    0.60589    0.74740   1.00
H2       0.89449    0.69488    0.74682   1.00
C5       0.80446    0.63468    0.72769   1.00
H2       0.83832    0.65900    0.71437   1.00
H2       0.77146    0.65768    0.72983   1.00
O_3      0.75404    0.72845    0.83859   1.00
C4       0.80880    0.64170    0.83401   1.00
C3c      0.83385    0.65157    0.81408   1.00
H1       0.87567    0.70073    0.80961   1.00
C3d      0.75493    0.57697    0.83961   1.00
C3       0.80501    0.59890    0.79957   1.00
O2       0.83747    0.60975    0.78116   1.00
C3       0.72524    0.52480    0.82510   1.00
H1       0.68246    0.47676    0.82990   1.00
C2       0.74946    0.53414    0.80482   1.00
C5       0.69288    0.69819    0.84989   1.00
H2       0.69536    0.73012    0.86309   1.00
H2       0.68053    0.64696    0.85568   1.00
C5       0.63611    0.69021    0.83586   1.00
H2       0.63488    0.65991    0.82239   1.00
H2       0.64865    0.74171    0.83033   1.00
C5       0.56706    0.65531    0.84678   1.00
H2       0.56807    0.68505    0.86034   1.00
H2       0.55338    0.60297    0.85170   1.00
H2       0.52645    0.65128    0.83643   1.00
C5       0.76053    0.54725    0.87231   1.00
C5       0.80875    0.63529    0.76704   1.00
H2       0.81446    0.58857    0.87402   1.00
H2       0.75985    0.49978    0.86737   1.00
H2       0.81593    0.68524    0.77237   1.00
H2       0.75278    0.60017    0.76486   1.00
H2       0.77185    0.57944    0.72385   1.00
H2       0.81493    0.58330    0.91291   1.00
H2       0.78654    0.49488    0.90666   1.00
C2       0.88923    0.80196    0.87814   1.00
C3       0.91980    0.76139    0.87536   1.00
O2       0.96368    0.76089    0.88979   1.00
C3       0.83419    0.79042    0.86539   1.00
H1       0.81083    0.82176    0.86678   1.00
C3a      0.89397    0.70969    0.86047   1.00
H1       0.91540    0.67654    0.85932   1.00
C3b      0.80722    0.73755    0.85104   1.00
C4       0.83699    0.69658    0.84851   1.00
O_3      0.72504    0.56608    0.85857   1.00
C5       1.03190    0.80152    0.88337   1.00
H2       1.04117    0.78251    0.86877   1.00
C5       1.07703    0.79739    0.89995   1.00
H2       1.04512    0.85563    0.88133   1.00
H2       1.07713    0.74855    0.89813   1.00
H2       1.05222    0.79437    0.91480   1.00
C5       1.15051    0.85837    0.89963   1.00
H2       1.17257    0.86385    0.88422   1.00
H2       1.18316    0.85074    0.91073   1.00
H2       1.15201    0.90683    0.90399   1.00
C5       0.72519    0.53461    0.89280   1.00
H2       0.67549    0.48609    0.89193   1.00
H2       0.71342    0.57617    0.89559   1.00
C5       0.76942    0.53207    0.91013   1.00
H2       0.73943    0.51577    0.92442   1.00
C5       0.59344    0.43473    0.82288   1.00
H2       0.63095    0.41684    0.82373   1.00
H2       0.59137    0.45310    0.83834   1.00
C5       0.61830    0.49372    0.80737   1.00
H2       0.65682    0.54287    0.81433   1.00
H2       0.57445    0.49861    0.80189   1.00
O_3      0.24898    0.19074    0.82915   1.00
C4       0.35818    0.16590    0.83398   1.00
C3c      0.41683    0.23028    0.83610   1.00
H1       0.42195    0.26161    0.84909   1.00
C3d      0.35296    0.12547    0.81709   1.00
C3       0.46911    0.25563    0.82145   1.00
O2       0.52846    0.31521    0.82576   1.00
C3       0.40432    0.15111    0.80228   1.00
H1       0.39696    0.11926    0.78922   1.00
C2       0.46363    0.21640    0.80406   1.00
C5       0.20084    0.14718    0.81470   1.00
H2       0.14817    0.11908    0.82103   1.00
H2       0.21413    0.10901    0.80888   1.00
C5       0.20164    0.19118    0.79718   1.00
H2       0.25468    0.22072    0.79122   1.00
H2       0.18768    0.22866    0.80313   1.00
C5       0.15225    0.14740    0.78038   1.00
H2       0.09926    0.11740    0.78626   1.00
H2       0.16754    0.11158    0.77394   1.00
H2       0.15243    0.18055    0.76791   1.00
C5       0.29813    0.01131    0.82366   1.00
C5       0.52524    0.37139    0.81770   1.00
H2       0.30200    0.01942    0.84036   1.00
H2       0.34283    0.00725    0.81842   1.00
H2       0.48232    0.37484    0.82479   1.00
H2       0.51677    0.36739    0.80092   1.00
H2       0.64391    0.48512    0.79411   1.00
H2       0.21158    -0.10361   0.84918   1.00
H2       0.26912    -0.11856   0.83363   1.00
C2       0.19406    0.08921    0.87681   1.00
C3       0.25008    0.07925    0.88011   1.00
O2       0.24541    0.03137    0.89394   1.00
C3       0.19544    0.12767    0.85971   1.00
H1       0.15418    0.13770    0.85705   1.00
C3a      0.30469    0.10603    0.86616   1.00
H1       0.34532    0.09466    0.86827   1.00
C3b      0.24878    0.15235    0.84553   1.00
C4       0.30392    0.14152    0.84866   1.00
O_3      0.29406    0.06401    0.81351   1.00
C5       0.27928    0.06356    0.91207   1.00
H2       0.33438    0.10056    0.90929   1.00
C5       0.27281    0.00745    0.92641   1.00
H2       0.25550    0.09124    0.91922   1.00
H2       0.31141    -0.00691   0.92197   1.00
H2       0.22187    -0.03835   0.92373   1.00
C5       0.28125    0.02868    0.94892   1.00
H2       0.32993    0.07738    0.95102   1.00
H2       0.28197    -0.01105   0.95870   1.00
H2       0.23782    0.03486    0.95431   1.00
C5       0.23304    -0.05525   0.81900   1.00
H2       0.23503    -0.06923   0.80292   1.00
H2       0.18917    -0.04615   0.82027   1.00
C5       0.22299    -0.11302   0.83343   1.00
H2       0.17915    -0.16217   0.82828   1.00
C5       0.57568    0.18570    0.82848   1.00
H2       0.59894    0.24200    0.82792   1.00
H2       0.56138    0.17112    0.84458   1.00
C5       0.51156    0.15218    0.81480   1.00
H2       0.46680    0.14898    0.82283   1.00
H2       0.49965    0.09991    0.81040   1.00
O_3      0.79420    0.05300    0.83221   1.00
C4       0.83417    0.19227    0.83396   1.00
C3c      0.77413    0.19457    0.83735   1.00
H1       0.74625    0.17472    0.85135   1.00
C3d      0.87026    0.21929    0.81574   1.00
C3       0.74861    0.22143    0.82272   1.00
O2       0.69441    0.22960    0.82811   1.00
C3       0.84430    0.24488    0.80099   1.00
H1       0.87244    0.26283    0.78696   1.00
C2       0.78325    0.24692    0.80407   1.00
C5       0.82952    0.03861    0.81715   1.00
H2       0.85509    0.01138    0.82341   1.00
H2       0.86904    0.08634    0.80967   1.00
C5       0.77771    -0.00682   0.80138   1.00
H2       0.75080    0.01957    0.79553   1.00
H2       0.73888    -0.05457   0.80898   1.00
C5       0.81234    -0.02303   0.78399   1.00
H2       0.83971    -0.04896   0.78973   1.00
H2       0.84942    0.02442    0.77594   1.00
H2       0.77349    -0.05749   0.77284   1.00
C5       0.98576    0.27000    0.81904   1.00
C5       0.63254    0.17147    0.82227   1.00
H2       0.98328    0.27157    0.83586   1.00
H2       0.99331    0.31912    0.81280   1.00
H2       0.62643    0.12534    0.83028   1.00
H2       0.63016    0.16121    0.80561   1.00
H2       0.51904    0.18305    0.80081   1.00
H2       1.10478    0.29383    0.84175   1.00
H2       1.12175    0.36345    0.82461   1.00
C2       0.91018    0.10431    0.87683   1.00
C3       0.92804    0.17340    0.87864   1.00
O2       0.98225    0.21727    0.89067   1.00
C3       0.86437    0.06476    0.86126   1.00
H1       0.84831    0.01129    0.85979   1.00
C3a      0.90154    0.20160    0.86473   1.00
H1       0.91875    0.25550    0.86561   1.00
C3b      0.83983    0.09349    0.84705   1.00
C4       0.85846    0.16244    0.84868   1.00
O_3      0.92674    0.21358    0.81102   1.00
C5       0.95845    0.22838    0.90925   1.00
H2       0.92502    0.25095    0.90681   1.00
C5       1.02124    0.27817    0.92151   1.00
H2       0.92917    0.17981    0.91786   1.00
H2       1.03916    0.33073    0.91581   1.00
H2       1.06252    0.26649    0.91811   1.00
C5       1.00749    0.27410    0.94453   1.00
H2       0.96271    0.28051    0.94750   1.00
H2       1.05242    0.31480    0.95273   1.00
H2       0.99790    0.22437    0.95096   1.00
C5       1.04651    0.26219    0.81316   1.00
H2       1.05600    0.27241    0.79661   1.00
H2       1.03244    0.20803    0.81563   1.00
C5       1.11066    0.30979    0.82552   1.00
H2       1.15543    0.30794    0.81940   1.00
C5       -0.03803   0.36384    0.41274   1.00
H2       -0.05190   0.39874    0.42050   1.00
H2       0.01806    0.38734    0.41451   1.00
C5       -0.07515   0.29304    0.42309   1.00
H2       -0.04758   0.29268    0.43703   1.00
H2       -0.07856   0.25327    0.41246   1.00
O_3      -0.00076   0.38907    0.30778   1.00
C4       -0.02459   0.47580    0.33277   1.00
C3c      -0.01322   0.46206    0.35272   1.00
H1       0.03723    0.47321    0.35723   1.00
C3d      -0.09048   0.46179    0.32728   1.00
C3       -0.06652   0.43299    0.36702   1.00
O2       -0.04988   0.42875    0.38683   1.00
C3       -0.14394   0.43164    0.34138   1.00
H1       -0.19411   0.41958    0.33627   1.00
C2       -0.13349   0.41673    0.36154   1.00
C5       -0.04766   0.36161    0.29159   1.00
H2       -0.02173   0.37186    0.27657   1.00
H2       -0.08267   0.38294    0.29137   1.00
C5       -0.08930   0.28492    0.29466   1.00
H2       -0.11368   0.27469    0.30991   1.00
H2       -0.05391   0.26409    0.29466   1.00
C5       -0.14345   0.25113    0.27803   1.00
H2       -0.11950   0.26153    0.26275   1.00
H2       -0.18022   0.27015    0.27847   1.00
H2       -0.17237   0.19495    0.28028   1.00
C5       -0.09166   0.53700    0.30450   1.00
C5       -0.05615   0.36428    0.39039   1.00
H2       -0.03673   0.57439    0.30692   1.00
H2       -0.12248   0.54985    0.31490   1.00
H2       -0.02013   0.35739    0.38046   1.00
H2       -0.10869   0.32119    0.38718   1.00
H2       -0.12763   0.27965    0.42804   1.00
H2       -0.02353   0.64376    0.27475   1.00
H2       -0.09455   0.64578    0.28690   1.00
C2       0.13357    0.55696    0.28798   1.00
C3       0.12488    0.60137    0.30107   1.00
O2       0.15456    0.66986    0.29655   1.00
C3       0.09127    0.48582    0.29075   1.00
H1       0.09781    0.45048    0.28132   1.00
C3a      0.07365    0.57417    0.31610   1.00
H1       0.06507    0.60884    0.32523   1.00
C3b      0.03895    0.45897    0.30527   1.00
C4       0.02968    0.50318    0.31807   1.00
O_3      -0.10550   0.46954    0.30746   1.00
C5       0.21354    0.70786    0.30844   1.00
H2       0.20120    0.70092    0.32498   1.00
C5       0.24263    0.78295    0.30281   1.00
H2       0.25231    0.69246    0.30526   1.00
H2       0.21271    0.80253    0.31088   1.00
H2       0.23339    0.78507    0.28629   1.00
C5       0.31919    0.82718    0.30773   1.00
H2       0.32817    0.82023    0.32390   1.00
H2       0.33709    0.88212    0.30503   1.00
H2       0.35081    0.81371    0.29783   1.00
C5       -0.11009   0.54274    0.28267   1.00
H2       -0.16668   0.51434    0.28122   1.00
H2       -0.09051   0.51659    0.27270   1.00
C5       -0.08024   0.61749    0.27601   1.00
H2       -0.10048   0.61966    0.26085   1.00
C5       0.38510    1.05053    0.40841   1.00
H2       0.42973    1.05956    0.41772   1.00
H2       0.34758    0.99526    0.40985   1.00
C5       0.35486    1.09355    0.41685   1.00
H2       0.32122    1.06784    0.43011   1.00
H2       0.32472    1.10126    0.40487   1.00
O_3      0.40238    1.01200    0.30422   1.00
C4       0.50034    1.02451    0.33280   1.00
C3c      0.46936    1.01556    0.35187   1.00
H1       0.42541    0.96702    0.35570   1.00
C3d      0.55816    1.08786    0.32822   1.00
C3       0.49373    1.06897    0.36614   1.00
O2       0.46612    1.05399    0.38532   1.00
C3       0.58176    1.14154    0.34224   1.00
H1       0.62477    1.18992    0.33778   1.00
C2       0.55058    1.13359    0.36151   1.00
C5       0.43108    1.05902    0.28810   1.00
H2       0.41813    1.03344    0.27300   1.00
H2       0.48777    1.08938    0.28942   1.00
C5       0.40239    1.10691    0.28918   1.00
H2       0.41366    1.13104    0.30448   1.00
H2       0.34585    1.07614    0.28766   1.00
C5       0.43294    1.16146    0.27255   1.00
H2       0.42228    1.13770    0.25724   1.00
H2       0.48910    1.19373    0.27447   1.00
H2       0.41024    1.19505    0.27330   1.00
C5       0.63659    1.08015    0.30840   1.00
C5       0.41153    1.06732    0.38659   1.00
H2       0.61301    1.02436    0.31103   1.00
H2       0.67765    1.10763    0.31987   1.00
H2       0.37043    1.03429    0.37570   1.00
H2       0.42753    1.12152    0.38291   1.00
H2       0.39590    1.14432    0.42239   1.00
H2       0.67387    1.00379    0.28134   1.00
H2       0.74647    1.07022    0.29501   1.00
C2       0.42402    0.86661    0.28793   1.00
C3       0.47040    0.86973    0.30278   1.00
O2       0.50447    0.83398    0.30020   1.00
C3       0.40127    0.91447    0.28893   1.00
H1       0.36444    0.91235    0.27810   1.00
C3a      0.49412    0.92098    0.31780   1.00
H1       0.53255    0.92509    0.32835   1.00
C3b      0.42662    0.96671    0.30348   1.00
C4       0.47352    0.97039    0.31805   1.00
O_3      0.58735    1.10092    0.30912   1.00
C5       0.47425    0.77439    0.31219   1.00
H2       0.47556    0.78687    0.32863   1.00
C5       0.51544    0.73844    0.30876   1.00
H2       0.42022    0.73980    0.30763   1.00
H2       0.56255    0.76429    0.31815   1.00
H2       0.53229    0.74675    0.29262   1.00
C5       0.47477    0.66160    0.31368   1.00
H2       0.45381    0.65410    0.32930   1.00
H2       0.50802    0.63848    0.31265   1.00
H2       0.43214    0.63346    0.30266   1.00
C5       0.66812    1.09663    0.28730   1.00
H2       0.70149    1.15293    0.28601   1.00
H2       0.62634    1.08122    0.27601   1.00
C5       0.70851    1.05998    0.28283   1.00
H2       0.73653    1.07862    0.26827   1.00
C5       0.66438    0.61435    0.40858   1.00
H2       0.62879    0.56955    0.41783   1.00
H2       0.64642    0.65170    0.41004   1.00
C5       0.73758    0.64474    0.41709   1.00
H2       0.74522    0.67818    0.43038   1.00
H2       0.77551    0.67512    0.40516   1.00
O_3      0.60972    0.59811    0.30434   1.00
C4       0.52418    0.49966    0.33280   1.00
C3c      0.54591    0.53044    0.35191   1.00
H1       0.54108    0.57423    0.35576   1.00
C3d      0.53002    0.44204    0.32818   1.00
C3       0.57495    0.50607    0.36617   1.00
O2       0.58727    0.53345    0.38539   1.00
C3       0.56010    0.41845    0.34221   1.00
H1       0.56572    0.37561    0.33772   1.00
C2       0.58303    0.44943    0.36152   1.00
C5       0.62838    0.56974    0.28821   1.00
H2       0.61584    0.58279    0.27311   1.00
H2       0.60223    0.51305    0.28948   1.00
C5       0.70500    0.59868    0.28937   1.00
H2       0.71775    0.58731    0.30467   1.00
H2       0.73059    0.65522    0.28790   1.00
C5       0.72936    0.56850    0.27273   1.00
H2       0.71637    0.57926    0.25742   1.00
H2       0.70564    0.51233    0.27460   1.00
H2       0.78566    0.59138    0.27354   1.00
C5       0.44426    0.36364    0.30825   1.00
C5       0.65509    0.58820    0.38674   1.00
H2       0.41185    0.38701    0.31088   1.00
H2       0.43070    0.32248    0.31968   1.00
H2       0.66312    0.62938    0.37588   1.00
H2       0.69347    0.57243    0.38308   1.00
H2       0.74744    0.60376    0.42261   1.00
H2       0.33085    0.32629    0.28109   1.00
H2       0.32481    0.25366    0.29470   1.00
C2       0.44262    0.57600    0.28793   1.00
C3       0.39928    0.52936    0.30272   1.00
O2       0.32950    0.49510    0.30007   1.00
C3       0.51326    0.59899    0.28899   1.00
H1       0.54802    0.63602    0.27821   1.00
C3a      0.42681    0.50563    0.31774   1.00
H1       0.39246    0.46701    0.32824   1.00
C3b      0.54016    0.57364    0.30354   1.00
C4       0.49688    0.52648    0.31805   1.00
O_3      0.51419    0.41307    0.30905   1.00
C5       0.29980    0.52498    0.31206   1.00
H2       0.31082    0.52354    0.32851   1.00
C5       0.22271    0.48360    0.30855   1.00
H2       0.31911    0.57904    0.30755   1.00
H2       0.20149    0.43639    0.31790   1.00
H2       0.21441    0.46694    0.29240   1.00
C5       0.18625    0.52398    0.31347   1.00
H2       0.19946    0.54476    0.32912   1.00
H2       0.12991    0.49057    0.31239   1.00
H2       0.20070    0.56670    0.30249   1.00
C5       0.42954    0.33237    0.28712   1.00
H2       0.45268    0.29918    0.28581   1.00
H2       0.45593    0.37431    0.27587   1.00
C5       0.35258    0.29179    0.28257   1.00
H2       0.34346    0.26397    0.26798   1.00
C5       0.31169    0.37482    0.24488   1.00
H2       0.36075    0.42138    0.24122   1.00
H2       0.32031    0.33124    0.24228   1.00
C5       0.29329    0.37721    0.26735   1.00
H2       0.32135    0.36042    0.27753   1.00
H2       0.23751    0.34341    0.26971   1.00
O_3      0.05839    0.24874    0.17093   1.00
C4       0.19210    0.35841    0.16594   1.00
C3c      0.22906    0.35608    0.18273   1.00
H1       0.23663    0.31292    0.18470   1.00
C3d      0.18366    0.41556    0.16351   1.00
C3       0.25588    0.40851    0.19734   1.00
O2       0.29840    0.40678    0.21195   1.00
C3       0.20919    0.46722    0.17823   1.00
H1       0.19937    0.50887    0.17609   1.00
C2       0.24604    0.46531    0.19541   1.00
C5       0.00840    0.26548    0.16527   1.00
H2       -0.02780   0.22945    0.15378   1.00
H2       0.03233    0.31812    0.15889   1.00
C5       -0.03158   0.26170    0.18420   1.00
H2       0.00484    0.29627    0.19589   1.00
H2       -0.05577   0.20879    0.19033   1.00
C5       -0.08569   0.28162    0.17953   1.00
H2       -0.12196   0.24760    0.16777   1.00
H2       -0.06142   0.33525    0.17408   1.00
H2       -0.11538   0.27710    0.19345   1.00
C5       0.18339    0.44593    0.13053   1.00
C5       0.26031    0.37311    0.22945   1.00
H2       0.20439    0.41372    0.12502   1.00
H2       0.22658    0.49857    0.13332   1.00
H2       0.22154    0.31931    0.22573   1.00
H2       0.23247    0.39803    0.23588   1.00
H2       0.30826    0.43030    0.27209   1.00
H2       0.17269    0.41520    0.08772   1.00
H2       0.22180    0.50613    0.09292   1.00
C2       0.10274    0.19706    0.12226   1.00
C3       0.17111    0.24966    0.12002   1.00
O2       0.20415    0.25952    0.10169   1.00
C3       0.06633    0.19748    0.13966   1.00
H1       0.01450    0.15699    0.14208   1.00
C3a      0.20067    0.30182    0.13473   1.00
H1       0.25174    0.34378    0.13220   1.00
C3b      0.09516    0.25057    0.15391   1.00
C4       0.16277    0.30339    0.15151   1.00
O_3      0.14337    0.41792    0.14811   1.00
C5       0.24841    0.23257    0.10240   1.00
H2       0.28763    0.25747    0.11455   1.00
C5       0.28377    0.24649    0.08175   1.00
H2       0.21950    0.17655    0.10525   1.00
H2       0.32597    0.30047    0.08142   1.00
H2       0.24618    0.24191    0.07006   1.00
C5       0.31099    0.19775    0.07696   1.00
H2       0.34417    0.19899    0.08956   1.00
H2       0.34125    0.21303    0.06266   1.00
H2       0.26839    0.14430    0.07468   1.00
C5       0.13738    0.44868    0.11418   1.00
H2       0.12599    0.48976    0.11814   1.00
H2       0.08799    0.39968    0.11449   1.00
C5       0.16976    0.46054    0.09295   1.00
H2       0.13822    0.46935    0.08178   1.00
C5       0.38574    0.57937    0.17007   1.00
H2       0.39568    0.56512    0.18528   1.00
H2       0.40066    0.55230    0.15896   1.00
C5       0.30896    0.55556    0.16801   1.00
H2       0.27924    0.50045    0.16402   1.00
H2       0.30121    0.58563    0.15602   1.00
O_3      0.62990    0.89132    0.12985   1.00
C4       0.64253    0.83361    0.16626   1.00
C3c      0.58953    0.76541    0.16606   1.00
H1       0.58908    0.73092    0.15464   1.00
C3d      0.64269    0.87747    0.18144   1.00
C3       0.53603    0.74089    0.18029   1.00
O2       0.49064    0.67185    0.18070   1.00
C3       0.58881    0.85355    0.19540   1.00
H1       0.58985    0.88968    0.20631   1.00
C2       0.53442    0.78492    0.19527   1.00
C5       0.64289    0.95869    0.13240   1.00
H2       0.68317    0.99518    0.12188   1.00
H2       0.65923    0.97679    0.14825   1.00
C5       0.57710    0.95873    0.12792   1.00
H2       0.53636    0.92086    0.13805   1.00
H2       0.56161    0.94120    0.11200   1.00
C5       0.58607    1.02988    0.13105   1.00
H2       0.62701    1.06805    0.12108   1.00
H2       0.59922    1.04644    0.14710   1.00
H2       0.53791    1.02924    0.12727   1.00
C5       0.74893    0.95680    0.19227   1.00
C5       0.43362    0.65649    0.16838   1.00
H2       0.77308    0.92971    0.18506   1.00
H2       0.73613    0.93925    0.20831   1.00
H2       0.45004    0.67098    0.15231   1.00
H2       0.40683    0.68437    0.17322   1.00
H2       0.28745    0.56138    0.18265   1.00
H2       0.89512    1.03132    0.18694   1.00
H2       0.86976    1.02447    0.21338   1.00
C2       0.80245    0.91316    0.12201   1.00
C3       0.80833    0.88118    0.13966   1.00
O2       0.87080    0.88990    0.14540   1.00
C3       0.74155    0.91503    0.11896   1.00
H1       0.73474    0.93756    0.10535   1.00
C3a      0.75473    0.85371    0.15395   1.00
H1       0.76162    0.83289    0.16793   1.00
C3b      0.68927    0.88962    0.13350   1.00
C4       0.69563    0.85879    0.15119   1.00
O_3      0.69082    0.94623    0.18137   1.00
C5       0.87521    0.83177    0.14022   1.00
H2       0.83439    0.78510    0.14784   1.00
C5       0.94510    0.84492    0.14735   1.00
H2       0.87072    0.82324    0.12351   1.00
H2       0.94244    0.83493    0.16396   1.00
H2       0.98190    0.90029    0.14525   1.00
C5       0.96941    0.80150    0.13593   1.00
H2       0.92964    0.74677    0.13684   1.00
H2       1.01747    0.80818    0.14266   1.00
H2       0.98068    0.81711    0.11966   1.00
C5       0.79976    1.03302    0.19211   1.00
H2       0.78039    1.05878    0.20231   1.00
H2       0.80130    1.05260    0.17650   1.00
C5       0.87158    1.04895    0.19859   1.00
H2       0.90539    1.10490    0.20034   1.00
C5       0.39627    0.76333    0.16361   1.00
H2       0.42047    0.79327    0.17755   1.00
H2       0.42194    0.79858    0.15071   1.00
C5       0.40801    0.70169    0.16253   1.00
H2       0.45965    0.71740    0.15644   1.00
H2       0.36896    0.66138    0.15257   1.00
O_3      0.08539    0.72824    0.13385   1.00
C4       0.16655    0.80903    0.16624   1.00
C3c      0.23015    0.81320    0.16386   1.00
H1       0.26104    0.83852    0.15071   1.00
C3d      0.12752    0.77668    0.18363   1.00
C3       0.25446    0.78415    0.17814   1.00
O2       0.32048    0.79745    0.17609   1.00
C3       0.15099    0.74656    0.19768   1.00
H1       0.11821    0.72020    0.21041   1.00
C2       0.21486    0.74966    0.19539   1.00
C5       0.01731    0.68311    0.13968   1.00
H2       -0.02001   0.68900    0.13011   1.00
H2       0.00857    0.69131    0.15584   1.00
C5       0.00436    0.61089    0.13719   1.00
H2       0.04287    0.60558    0.14631   1.00
H2       0.01260    0.60307    0.12098   1.00
C5       -0.06810   0.55836    0.14393   1.00
H2       -0.10682   0.56368    0.13498   1.00
H2       -0.07563   0.56461    0.16030   1.00
H2       -0.07712   0.50586    0.14158   1.00
C5       0.06601    0.82405    0.19555   1.00
C5       0.32144    0.74492    0.16476   1.00
H2       0.09512    0.87086    0.18623   1.00
H2       0.09043    0.83302    0.21080   1.00
H2       0.30084    0.74253    0.14922   1.00
H2       0.28990    0.69355    0.17186   1.00
H2       0.40554    0.67991    0.17793   1.00
H2       0.00815    0.91134    0.19008   1.00
H2       0.02429    0.90187    0.21655   1.00
C2       0.08645    0.88957    0.12223   1.00
C3       0.13001    0.93205    0.13772   1.00
O2       0.13374    0.99346    0.14202   1.00
C3       0.07306    0.82155    0.12111   1.00
H1       0.04136    0.78826    0.10911   1.00
C3a      0.15744    0.90554    0.15189   1.00
H1       0.18751    0.93755    0.16434   1.00
C3b      0.09864    0.79472    0.13560   1.00
C4       0.14107    0.83670    0.15118   1.00
O_3      0.06240    0.76669    0.18592   1.00
C5       0.19356    1.04777    0.13359   1.00
H2       0.24016    1.04915    0.13975   1.00
C5       0.19449    1.11376    0.13929   1.00
H2       0.19365    1.04332    0.11675   1.00
H2       0.21282    1.12706    0.15521   1.00
H2       0.14072    1.10274    0.13917   1.00
C5       0.23887    1.17348    0.12491   1.00
H2       0.29090    1.18025    0.12398   1.00
H2       0.24292    1.22176    0.13051   1.00
H2       0.21616    1.16452    0.10938   1.00
C5       -0.00663   0.81026    0.19808   1.00
H2       -0.03209   0.77103    0.21013   1.00
H2       -0.03482   0.78765    0.18370   1.00
C5       -0.00865   0.87554    0.20323   1.00
H2       -0.06163   0.86249    0.20704   1.00
C5       1.02305    0.58317    0.58185   1.00
H2       1.06226    0.63792    0.58324   1.00
H2       0.97304    0.58117    0.58228   1.00
C5       1.03221    0.55508    0.56142   1.00
H2       1.00831    0.56843    0.54880   1.00
H2       1.00842    0.49862    0.56223   1.00
O_3      0.93648    0.38356    0.66903   1.00
C4       1.02497    0.52555    0.66737   1.00
C3c      1.01550    0.54602    0.64811   1.00
H1       0.96666    0.54055    0.64418   1.00
C3d      1.08930    0.53402    0.67229   1.00
C3       1.06816    0.57281    0.63357   1.00
O2       1.05783    0.59937    0.61603   1.00
C3       1.14143    0.55946    0.65772   1.00
H1       1.18912    0.56278    0.66194   1.00
C2       1.13249    0.57971    0.63809   1.00
C5       0.96589    0.34915    0.67891   1.00
H2       0.93369    0.31672    0.69166   1.00
H2       1.01734    0.38595    0.68506   1.00
C5       0.97297    0.30355    0.66336   1.00
H2       1.00354    0.33569    0.65034   1.00
H2       0.92125    0.26662    0.65746   1.00
C5       1.00692    0.26590    0.67270   1.00
H2       0.97691    0.23408    0.68579   1.00
H2       1.05947    0.30269    0.67795   1.00
H2       1.01028    0.23170    0.66123   1.00
C5       1.11930    0.56076    0.70547   1.00
C5       1.03158    0.54882    0.60074   1.00
H2       1.07858    0.57365    0.70818   1.00
H2       1.16719    0.60828    0.70123   1.00
H2       0.98131    0.50527    0.60553   1.00
H2       1.06602    0.52785    0.59742   1.00
H2       1.08736    0.57792    0.55743   1.00
H2       1.08381    0.56949    0.74701   1.00
H2       1.17251    0.63000    0.74123   1.00
C2       0.86463    0.43668    0.71137   1.00
C3       0.90611    0.50824    0.71011   1.00
O2       0.90736    0.54918    0.72580   1.00
C3       0.87532    0.39602    0.69720   1.00
H1       0.84329    0.34118    0.69743   1.00
C3a      0.95783    0.53719    0.69526   1.00
H1       0.99165    0.59181    0.69524   1.00
C3b      0.92821    0.42484    0.68288   1.00
C4       0.97007    0.49593    0.68184   1.00
O_3      1.09971    0.50995    0.69045   1.00
C5       0.86760    0.57917    0.72084   1.00
H2       0.88697    0.61100    0.70684   1.00
C5       0.87253    0.62442    0.73875   1.00
H2       0.81325    0.53946    0.71839   1.00
H2       0.92180    0.67328    0.73766   1.00
H2       0.87510    0.59871    0.75286   1.00
C5       0.81231    0.63803    0.73973   1.00
H2       0.80721    0.65868    0.72495   1.00
H2       0.82057    0.67558    0.75187   1.00
H2       0.76346    0.59050    0.74341   1.00
C5       1.13138    0.53256    0.72501   1.00
H2       1.17944    0.53082    0.72339   1.00
H2       1.08924    0.47892    0.72684   1.00
C5       1.13469    0.57513    0.74364   1.00
H2       1.15056    0.55749    0.75722   1.00
C5       0.58295    -0.03042   0.58456   1.00
H2       0.59237    -0.07347   0.58714   1.00
H2       0.63343    0.01670    0.58597   1.00
C5       0.55357    -0.03591   0.56301   1.00
H2       0.59504    -0.01513   0.55147   1.00
H2       0.52569    -0.00709   0.56222   1.00
O_3      0.46053    0.07429    0.66563   1.00
C4       0.50047    -0.02502   0.66738   1.00
C3c      0.53551    -0.01863   0.64920   1.00
H1       0.58289    0.02776    0.64613   1.00
C3d      0.43932    -0.08627   0.67122   1.00
C3       0.50976    -0.07117   0.63463   1.00
O2       0.55083    -0.06467   0.61840   1.00
C3       0.41288    -0.13816   0.65658   1.00
H1       0.36460    -0.18323   0.65988   1.00
C2       0.44727    -0.13224   0.63801   1.00
C5       0.39453    0.05075    0.67354   1.00
H2       0.39411    0.08475    0.68570   1.00
H2       0.37290    -0.00167   0.67993   1.00
C5       0.34950    0.04927    0.65624   1.00
H2       0.35144    0.01683    0.64385   1.00
H2       0.37121    0.10196    0.65010   1.00
C5       0.27588    0.02184    0.66340   1.00
H2       0.27362    0.05372    0.67587   1.00
H2       0.25336    -0.03162   0.66887   1.00
H2       0.24408    0.02255    0.65066   1.00
C5       0.42235    -0.11726   0.70457   1.00
C5       0.53608    -0.03434   0.60188   1.00
H2       0.47624    -0.08055   0.70860   1.00
H2       0.41769    -0.16765   0.70110   1.00
H2       0.54677    0.01784    0.60608   1.00
H2       0.48145    -0.06423   0.59707   1.00
H2       0.51822    -0.09027   0.55872   1.00
H2       0.45470    -0.08472   0.74694   1.00
H2       0.41980    -0.17488   0.74156   1.00
C2       0.57214    0.13580    0.71123   1.00
C3       0.59568    0.08868    0.71176   1.00
O2       0.62758    0.08289    0.72885   1.00
C3       0.52749    0.13037    0.69540   1.00
H1       0.50995    0.16672    0.69427   1.00
C3a      0.57302    0.03675    0.69697   1.00
H1       0.58842    -0.00124   0.69826   1.00
C3b      0.50333    0.07738    0.68111   1.00
C4       0.52595    0.02995    0.68184   1.00
O_3      0.40028    -0.09313   0.68816   1.00
C5       0.69880    0.11667    0.72588   1.00
H2       0.71250    0.09475    0.71274   1.00
C5       0.73016    0.10696    0.74527   1.00
H2       0.71960    0.17218    0.72313   1.00
H2       0.72432    0.05514    0.74495   1.00
H2       0.69909    0.10760    0.75828   1.00
C5       0.80571    0.16184    0.74802   1.00
H2       0.83493    0.16415    0.73421   1.00
H2       0.82823    0.14986    0.76131   1.00
H2       0.81156    0.21314    0.75095   1.00
C5       0.37728    -0.12520   0.72269   1.00
H2       0.32573    -0.17007   0.71998   1.00
H2       0.37096    -0.07951   0.72340   1.00
C5       0.40763    -0.13309   0.74271   1.00
H2       0.37028    -0.14585   0.75522   1.00
C5       0.38773    0.41783    0.58445   1.00
H2       0.33516    0.40818    0.58699   1.00
H2       0.38456    0.36743    0.58582   1.00
C5       0.41179    0.44751    0.56293   1.00
H2       0.39137    0.40618    0.55135   1.00
H2       0.46850    0.47558    0.56220   1.00
O_3      0.61389    0.53999    0.66575   1.00
C4       0.47449    0.49952    0.66738   1.00
C3c      0.44615    0.46466    0.64916   1.00
H1       0.44538    0.41741    0.64605   1.00
C3d      0.47410    0.56050    0.67127   1.00
C3       0.41935    0.49041    0.63459   1.00
O2       0.38508    0.44947    0.61831   1.00
C3       0.44864    0.58695    0.65662   1.00
H1       0.45163    0.63510    0.65996   1.00
C2       0.42047    0.55273    0.63802   1.00
C5       0.65607    0.60593    0.67374   1.00
H2       0.69043    0.60636    0.68592   1.00
H2       0.62505    0.62731    0.68012   1.00
C5       0.69972    0.65126    0.65649   1.00
H2       0.66541    0.64932    0.64408   1.00
H2       0.73093    0.62980    0.65036   1.00
C5       0.74561    0.72483    0.66374   1.00
H2       0.77968    0.72709    0.67623   1.00
H2       0.71445    0.74711    0.66921   1.00
H2       0.77820    0.75686    0.65104   1.00
C5       0.45960    0.57698    0.70461   1.00
C5       0.43038    0.46458    0.60183   1.00
H2       0.44256    0.52308    0.70860   1.00
H2       0.41378    0.58147    0.70112   1.00
H2       0.47195    0.45404    0.60605   1.00
H2       0.45499    0.51925    0.59707   1.00
H2       0.39264    0.48275    0.55866   1.00
H2       0.45943    0.54419    0.74696   1.00
H2       0.40397    0.57885    0.74157   1.00
C2       0.56364    0.42786    0.71124   1.00
C3       0.49292    0.40407    0.71170   1.00
O2       0.45509    0.37187    0.72874   1.00
C3       0.60294    0.47278    0.69546   1.00
H1       0.65688    0.49052    0.69438   1.00
C3a      0.46367    0.42673    0.69691   1.00
H1       0.41021    0.41113    0.69816   1.00
C3b      0.57410    0.49693    0.68117   1.00
C4       0.50399    0.47406    0.68184   1.00
O_3      0.50598    0.59939    0.68825   1.00
C5       0.41792    0.30069    0.72570   1.00
H2       0.38243    0.28702    0.71253   1.00
C5       0.37666    0.26898    0.74504   1.00
H2       0.45282    0.28011    0.72296   1.00
H2       0.33057    0.27463    0.74470   1.00
H2       0.40816    0.29997    0.75809   1.00
C5       0.35624    0.19348    0.74772   1.00
H2       0.32956    0.16437    0.73388   1.00
H2       0.32162    0.17071    0.76098   1.00
H2       0.40179    0.18780    0.75068   1.00
C5       0.49640    0.62190    0.72279   1.00
H2       0.50291    0.67339    0.72013   1.00
H2       0.54849    0.62842    0.72354   1.00
C5       0.45799    0.59121    0.74277   1.00
H2       0.48233    0.62844    0.75532   1.00
C5       0.29012    -0.31450   0.17615   1.00
H2       0.25175    -0.31604   0.16535   1.00
H2       0.27208    -0.31059   0.19150   1.00
C5       0.29329    -0.38097   0.17426   1.00
H2       0.25125    -0.42307   0.18300   1.00
H2       0.34303    -0.37265   0.18008   1.00
O_3      0.58738    -0.00333   0.19065   1.00
C4       0.47474    -0.02428   0.16714   1.00
C3c      0.42167    -0.08981   0.17215   1.00
H1       0.40137    -0.10024   0.18740   1.00
C3d      0.49980    -0.01150   0.14712   1.00
C3       0.39467    -0.14296   0.15778   1.00
O2       0.33744    -0.20319   0.16307   1.00
C3       0.47392    -0.06464   0.13287   1.00
H1       0.49639    -0.05303   0.11790   1.00
C2       0.42076    -0.13140   0.13774   1.00
C5       0.64952    0.03105    0.17990   1.00
H2       0.68825    0.07775    0.18796   1.00
H2       0.64171    0.04628    0.16447   1.00
C5       0.67704    -0.01761   0.17780   1.00
H2       0.63756    -0.06507   0.17025   1.00
H2       0.68525    -0.03197   0.19328   1.00
C5       0.74363    0.01500    0.16560   1.00
H2       0.78314    0.06269    0.17298   1.00
H2       0.73499    0.02719    0.14991   1.00
H2       0.76375    -0.02074   0.16461   1.00
C5       0.53278    0.09585    0.13586   1.00
C5       0.35664    -0.24904   0.17110   1.00
H2       0.50649    0.10577    0.14853   1.00
H2       0.49730    0.07567    0.12265   1.00
H2       0.38780    -0.22726   0.18511   1.00
H2       0.38778    -0.26008   0.16021   1.00
H2       0.28674    -0.39866   0.15816   1.00
H2       0.56938    0.23560    0.14366   1.00
H2       0.53516    0.20736    0.11832   1.00
C2       0.56416    0.13729    0.21075   1.00
C3       0.50548    0.12545    0.19990   1.00
O2       0.48644    0.17456    0.19929   1.00
C3       0.59007    0.09267    0.20756   1.00
H1       0.63385    0.09928    0.21601   1.00
C3a      0.47540    0.07113    0.18589   1.00
H1       0.43287    0.06513    0.17686   1.00
C3b      0.56136    0.04005    0.19315   1.00
C4       0.50366    0.02899    0.18214   1.00
O_3      0.55540    0.05062    0.14181   1.00
C5       0.43172    0.15745    0.21273   1.00
H2       0.38649    0.10726    0.20871   1.00
C5       0.41297    0.21348    0.21092   1.00
H2       0.44673    0.15497    0.22868   1.00
H2       0.38126    0.20366    0.19707   1.00
H2       0.46113    0.26253    0.20832   1.00
C5       0.37535    0.21846    0.22977   1.00
H2       0.33041    0.16769    0.23307   1.00
H2       0.35756    0.25565    0.22720   1.00
H2       0.40962    0.23681    0.24332   1.00
C5       0.59535    0.16283    0.12982   1.00
H2       0.61471    0.15530    0.11508   1.00
H2       0.63603    0.17515    0.14129   1.00
C5       0.57973    0.22152    0.12838   1.00
H2       0.62430    0.26758    0.12193   1.00
C5       1.06601    0.37203    0.09686   1.00
H2       1.07033    0.41161    0.08606   1.00
H2       1.01221    0.33001    0.09596   1.00
C5       1.11498    0.34641    0.09033   1.00
H2       1.09196    0.30778    0.07802   1.00
H2       1.12658    0.32318    0.10351   1.00
O_3      1.02262    0.41689    0.19912   1.00
C4       1.02443    0.50027    0.16718   1.00
C3c      1.01880    0.46427    0.14926   1.00
H1       0.97287    0.41632    0.14634   1.00
C3d      1.08433    0.56314    0.17055   1.00
C3       1.07231    0.48880    0.13502   1.00
O2       1.05993    0.45516    0.11677   1.00
C3       1.13821    0.58706    0.15659   1.00
H1       1.18408    0.63432    0.16017   1.00
C2       1.13366    0.55093    0.13850   1.00
C5       1.06866    0.45443    0.21481   1.00
H2       1.04312    0.44415    0.22989   1.00
H2       1.09397    0.51036    0.21183   1.00
C5       1.12253    0.43320    0.21561   1.00
H2       1.14673    0.44168    0.20037   1.00
H2       1.09677    0.37742    0.21878   1.00
C5       1.17628    0.47353    0.23186   1.00
H2       1.15240    0.46567    0.24710   1.00
H2       1.20367    0.52902    0.22833   1.00
H2       1.21437    0.45626    0.23253   1.00
C5       1.06680    0.64147    0.18713   1.00
C5       1.08043    0.40563    0.11781   1.00
H2       1.01081    0.61197    0.18450   1.00
H2       1.09099    0.67927    0.17461   1.00
H2       1.05039    0.36693    0.12966   1.00
H2       1.13563    0.42824    0.12174   1.00
H2       1.16368    0.38892    0.08409   1.00
H2       0.98173    0.67557    0.21135   1.00
H2       1.04325    0.74669    0.19607   1.00
C2       0.86673    0.42465    0.21211   1.00
C3       0.86464    0.46337    0.19562   1.00
O2       0.82293    0.49154    0.19630   1.00
C3       0.91986    0.40898    0.21276   1.00
H1       0.92190    0.37796    0.22489   1.00
C3a      0.91596    0.48679    0.18063   1.00
H1       0.91583    0.51962    0.16875   1.00
C3b      0.97202    0.43417    0.19818   1.00
C4       0.97046    0.47353    0.18198   1.00
O_3      1.09450    0.59799    0.18863   1.00
C5       0.76379    0.45240    0.18457   1.00
H2       0.77690    0.44984    0.16839   1.00
C5       0.72101    0.48744    0.18582   1.00
H2       0.73369    0.39946    0.19060   1.00
H2       0.74275    0.53133    0.17511   1.00
H2       0.72765    0.50928    0.20135   1.00
C5       0.64488    0.43876    0.18123   1.00
H2       0.63956    0.41335    0.16638   1.00
H2       0.61658    0.46720    0.18060   1.00
H2       0.62017    0.39928    0.19335   1.00
C5       1.08028    0.67955    0.20716   1.00
H2       1.13566    0.71778    0.20809   1.00
H2       1.06890    0.64247    0.21973   1.00
C5       1.03686    0.71409    0.20946   1.00
H2       1.05308    0.74706    0.22317   1.00
C5       0.61404    0.66379    0.09132   1.00
H2       0.56916    0.62821    0.08210   1.00
H2       0.65130    0.64572    0.08986   1.00
C5       0.64451    0.73695    0.08277   1.00
H2       0.67784    0.74444    0.06947   1.00
H2       0.67502    0.77493    0.09468   1.00
O_3      0.59838    0.60977    0.19559   1.00
C4       0.49966    0.52418    0.16720   1.00
C3c      0.53032    0.54574    0.14808   1.00
H1       0.57403    0.54078    0.14420   1.00
C3d      0.44215    0.53019    0.17184   1.00
C3       0.50596    0.57478    0.13381   1.00
O2       0.53321    0.58693    0.11457   1.00
C3       0.41857    0.56028    0.15781   1.00
H1       0.37582    0.56603    0.16232   1.00
C2       0.44944    0.58304    0.13848   1.00
C5       0.57019    0.62862    0.21172   1.00
H2       0.58330    0.61613    0.22682   1.00
H2       0.51350    0.60257    0.21049   1.00
C5       0.59928    0.70525    0.21053   1.00
H2       0.58785    0.71795    0.19523   1.00
H2       0.65582    0.73075    0.21196   1.00
C5       0.56930    0.72982    0.22717   1.00
H2       0.58011    0.71688    0.24248   1.00
H2       0.51312    0.70619    0.22533   1.00
H2       0.59227    0.78613    0.22633   1.00
C5       0.36378    0.44464    0.19184   1.00
C5       0.58804    0.65469    0.11318   1.00
H2       0.38702    0.41212    0.18921   1.00
H2       0.32256    0.43109    0.18042   1.00
H2       0.62926    0.66271    0.12401   1.00
H2       0.57241    0.69318    0.11683   1.00
H2       0.60357    0.74688    0.07727   1.00
H2       0.32638    0.33136    0.21905   1.00
H2       0.25373    0.32540    0.20547   1.00
C2       0.57601    0.44262    0.21207   1.00
C3       0.52923    0.39926    0.19731   1.00
O2       0.49486    0.32949    0.20000   1.00
C3       0.59913    0.51330    0.21097   1.00
H1       0.63627    0.54807    0.22172   1.00
C3a      0.50549    0.42678    0.18230   1.00
H1       0.46677    0.39241    0.17182   1.00
C3b      0.57378    0.54019    0.19642   1.00
C4       0.52648    0.49688    0.18195   1.00
O_3      0.41330    0.51453    0.19099   1.00
C5       0.52456    0.29961    0.18801   1.00
H2       0.52303    0.31054    0.17156   1.00
C5       0.48306    0.22255    0.19156   1.00
H2       0.57863    0.31884    0.19249   1.00
H2       0.43580    0.20136    0.18225   1.00
H2       0.46652    0.21438    0.20773   1.00
C5       0.52328    0.18592    0.18664   1.00
H2       0.54397    0.19900    0.17098   1.00
H2       0.48979    0.12960    0.18776   1.00
H2       0.56606    0.20035    0.19760   1.00
C5       0.33264    0.43012    0.21299   1.00
H2       0.29956    0.45337    0.21429   1.00
H2       0.37467    0.45650    0.22421   1.00
C5       0.29197    0.35318    0.21758   1.00
H2       0.26425    0.34421    0.23218   1.00
C5       0.34993    0.63897    0.65666   1.00
H2       0.34583    0.59752    0.66661   1.00
H2       0.35245    0.62299    0.64091   1.00
C5       0.28606    0.64635    0.65943   1.00
H2       0.24260    0.60749    0.65030   1.00
H2       0.29747    0.69812    0.65462   1.00
O_3      0.67022    0.92708    0.64495   1.00
C4       0.64234    0.80803    0.66618   1.00
C3c      0.57554    0.75869    0.66081   1.00
H1       0.56409    0.74133    0.64528   1.00
C3d      0.65638    0.82924    0.68657   1.00
C3       0.52247    0.73174    0.67521   1.00
O2       0.46048    0.67780    0.66941   1.00
C3       0.60340    0.80347    0.70086   1.00
H1       0.61613    0.82304    0.71616   1.00
C2       0.53540    0.75409    0.69564   1.00
C5       0.70761    0.98677    0.65664   1.00
H2       0.75527    1.02506    0.64888   1.00
H2       0.72177    0.97482    0.67168   1.00
C5       0.66258    1.01801    0.65993   1.00
H2       0.61412    0.97909    0.66718   1.00
H2       0.64928    1.03032    0.64484   1.00
C5       0.69857    1.08214    0.67318   1.00
H2       0.74723    1.12103    0.66611   1.00
H2       0.70974    1.06948    0.68850   1.00
H2       0.66548    1.10509    0.67505   1.00
C5       0.76215    0.85391    0.69722   1.00
C5       0.41758    0.70217    0.66237   1.00
H2       0.76990    0.82853    0.68387   1.00
H2       0.74027    0.81624    0.70986   1.00
H2       0.44070    0.73544    0.64882   1.00
H2       0.40907    0.73295    0.67406   1.00
H2       0.26856    0.63776    0.67558   1.00
H2       0.89937    0.88370    0.68853   1.00
H2       0.86983    0.84559    0.71341   1.00
C2       0.80420    0.89748    0.62267   1.00
C3       0.78878    0.83579    0.63234   1.00
O2       0.83483    0.81276    0.63193   1.00
C3       0.76295    0.92658    0.62697   1.00
H1       0.77230    0.97283    0.61942   1.00
C3a      0.73437    0.80582    0.64632   1.00
H1       0.72568    0.76072    0.65447   1.00
C3b      0.71027    0.89782    0.64136   1.00
C4       0.69567    0.83706    0.65120   1.00
O_3      0.72007    0.88137    0.69233   1.00
C5       0.81459    0.76005    0.61752   1.00
H2       0.76312    0.71606    0.62115   1.00
C5       0.86734    0.73664    0.61823   1.00
H2       0.81322    0.77866    0.60197   1.00
H2       0.85571    0.70203    0.63147   1.00
H2       0.91792    0.78248    0.62128   1.00
C5       0.86956    0.70107    0.59853   1.00
H2       0.81754    0.65879    0.59486   1.00
H2       0.90421    0.67977    0.60024   1.00
H2       0.88959    0.73768    0.58553   1.00
C5       0.83099    0.91275    0.70381   1.00
H2       0.82506    0.93044    0.71904   1.00
H2       0.84564    0.95598    0.69311   1.00
C5       0.88651    0.89245    0.70418   1.00
H2       0.93396    0.93407    0.71104   1.00
C5       0.42892    0.60381    0.67363   1.00
H2       0.40767    0.63864    0.67362   1.00
H2       0.44488    0.60290    0.65775   1.00
C5       0.49114    0.63214    0.68803   1.00
H2       0.53773    0.67259    0.68040   1.00
H2       0.50035    0.59034    0.69288   1.00
O_3      0.20006    0.25483    0.66903   1.00
C4       0.16586    0.35814    0.66603   1.00
C3c      0.22772    0.41912    0.66312   1.00
H1       0.25706    0.42609    0.64949   1.00
C3d      0.12793    0.35048    0.68376   1.00
C3       0.25318    0.47146    0.67775   1.00
O2       0.30960    0.53275    0.67275   1.00
C3       0.15377    0.40196    0.69854   1.00
H1       0.12408    0.39280    0.71221   1.00
C2       0.21661    0.46365    0.69593   1.00
C5       0.16142    0.20560    0.68390   1.00
H2       0.13483    0.15282    0.67762   1.00
H2       0.12229    0.21578    0.69073   1.00
C5       0.21026    0.20973    0.70037   1.00
H2       0.23823    0.26297    0.70625   1.00
H2       0.24869    0.19886    0.69342   1.00
C5       0.17195    0.15933    0.71758   1.00
H2       0.14352    0.10611    0.71179   1.00
H2       0.13524    0.17160    0.72500   1.00
H2       0.20864    0.16202    0.72926   1.00
C5       0.01270    0.28954    0.67919   1.00
C5       0.36939    0.53374    0.67947   1.00
H2       0.01743    0.29360    0.66240   1.00
H2       0.00646    0.33235    0.68503   1.00
H2       0.37452    0.49257    0.67182   1.00
H2       0.36925    0.52554    0.69621   1.00
H2       0.48316    0.65637    0.70175   1.00
H2       -0.10492   0.19772    0.65538   1.00
H2       -0.12121   0.25227    0.67191   1.00
C2       0.08958    0.19410    0.62318   1.00
C3       0.07474    0.24728    0.62076   1.00
O2       0.02290    0.23920    0.60801   1.00
C3       0.13259    0.19839    0.63937   1.00
H1       0.14635    0.15941    0.64133   1.00
C3a      0.10135    0.30195    0.63469   1.00
H1       0.08637    0.34023    0.63331   1.00
C3b      0.15718    0.25169    0.65357   1.00
C4       0.14153    0.30397    0.65133   1.00
O_3      0.06938    0.28949    0.68807   1.00
C5       0.05007    0.27383    0.58956   1.00
H2       0.08495    0.32953    0.59213   1.00
C5       -0.01023   0.26343    0.57647   1.00
H2       0.07884    0.25279    0.58152   1.00
H2       -0.02684   0.29964    0.58168   1.00
H2       -0.05336   0.21118    0.57962   1.00
C5       0.00653    0.27274    0.55362   1.00
H2       0.05294    0.32302    0.55097   1.00
H2       -0.03646   0.27048    0.54479   1.00
H2       0.01486    0.23129    0.54761   1.00
C5       -0.05045   0.22223    0.68464   1.00
H2       -0.06177   0.22338    0.70102   1.00
H2       -0.03827   0.18061    0.68265   1.00
C5       -0.11224   0.20826    0.67145   1.00
H2       -0.15883   0.16264    0.67721   1.00
C5       0.18555    0.57561    0.67154   1.00
H2       0.24185    0.59885    0.67209   1.00
H2       0.17094    0.56129    0.65545   1.00
C5       0.15203    0.51152    0.68523   1.00
H2       0.14879    0.46673    0.67721   1.00
H2       0.09977    0.49965    0.68965   1.00
O_3      0.05302    0.79427    0.66780   1.00
C4       0.19227    0.83417    0.66604   1.00
C3c      0.19453    0.77410    0.66266   1.00
H1       0.17465    0.74620    0.64867   1.00
C3d      0.21934    0.87029    0.68425   1.00
C3       0.22139    0.74859    0.67728   1.00
O2       0.22952    0.69435    0.67190   1.00
C3       0.24492    0.84432    0.69900   1.00
H1       0.26291    0.87249    0.71303   1.00
C2       0.24692    0.78326    0.69593   1.00
C5       0.03868    0.82964    0.68287   1.00
H2       0.01147    0.85522    0.67661   1.00
H2       0.08643    0.86916    0.69034   1.00
C5       -0.00674   0.77787    0.69864   1.00
H2       0.01963    0.75094    0.70449   1.00
H2       -0.05451   0.73904    0.69106   1.00
C5       -0.02289   0.81255    0.71604   1.00
H2       -0.04882   0.83993    0.71029   1.00
H2       0.02457    0.84962    0.72407   1.00
H2       -0.05735   0.77373    0.72719   1.00
C5       0.27009    0.98578    0.68094   1.00
C5       0.17138    0.63251    0.67775   1.00
H2       0.27163    0.98327    0.66411   1.00
H2       0.31921    0.99332    0.68717   1.00
H2       0.12524    0.62642    0.66974   1.00
H2       0.16114    0.63017    0.69442   1.00
H2       0.18292    0.51900    0.69922   1.00
H2       0.29395    1.10479    0.65821   1.00
H2       0.36359    1.12175    0.67534   1.00
C2       0.10431    0.91018    0.62317   1.00
C3       0.17339    0.92800    0.62135   1.00
O2       0.21726    0.98219    0.60931   1.00
C3       0.06478    0.86441    0.63875   1.00
H1       0.01131    0.84838    0.64023   1.00
C3a      0.20159    0.90150    0.63526   1.00
H1       0.25548    0.91868    0.63438   1.00
C3b      0.09351    0.83987    0.65295   1.00
C4       0.16244    0.85846    0.65132   1.00
O_3      0.21367    0.92679    0.68897   1.00
C5       0.22832    0.95833    0.59073   1.00
H2       0.25087    0.92489    0.59318   1.00
C5       0.27811    1.02110    0.57846   1.00
H2       0.17973    0.92906    0.58213   1.00
H2       0.33068    1.03900    0.58416   1.00
H2       0.26647    1.06240    0.58186   1.00
C5       0.27400    1.00730    0.55545   1.00
H2       0.28038    0.96250    0.55248   1.00
H2       0.31471    1.05221    0.54723   1.00
H2       0.22426    0.99773    0.54902   1.00
C5       0.26233    1.04656    0.68681   1.00
H2       0.27259    1.05608    0.70336   1.00
H2       0.20818    1.03252    0.68435   1.00
C5       0.30993    1.11069    0.67444   1.00
H2       0.30813    1.15549    0.68055   1.00
