data_IRMOF10_interpen_symm_ligand11cp_label_l_1.

_audit_creation_method             'generated by an auxiliary program of Tobunporous'

_symmetry_space_group_name_H-M     'P 1'
_symmetry_Int_Tables_number        1
_symmetry_cell_setting             triclinic

_cell_length_a                    22.6523
_cell_length_b                    22.6523
_cell_length_c                    65.9502
_cell_angle_alpha                 90.0000
_cell_angle_beta                  90.0000
_cell_angle_gamma                 120.0000

loop_
_atom_site_label
_atom_site_fract_x
_atom_site_fract_y
_atom_site_fract_z
_atom_site_occupancy
O1       0.00000    0.00000    0.57470   1.00
Zn1      0.00000    0.00000    0.54560   1.00
Zn1      0.94843    0.04287    0.58357   1.00
Zn1      0.09443    0.05157    0.58357   1.00
Zn1      0.95713    0.90557    0.58357   1.00
O2       0.93860    0.02610    0.53560   1.00
O2       0.08750    0.06140    0.53560   1.00
O2       0.97390    0.91250    0.53560   1.00
O2       0.91300    0.07160    0.56150   1.00
O2       0.00463    0.12027    0.60077   1.00
O2       0.87413    0.98077    0.60037   1.00
O2       0.15860    0.08700    0.56150   1.00
O2       0.10663    0.12587    0.60037   1.00
O2       0.11563    0.99537    0.60077   1.00
O2       0.92840    0.84140    0.56150   1.00
O2       0.87973    0.88437    0.60077   1.00
O2       0.01923    0.89337    0.60037   1.00
C1       0.91390    0.06020    0.54330   1.00
C1       0.14630    0.08610    0.54330   1.00
C1       0.93980    0.85370    0.54330   1.00
C1       0.06663    0.14397    0.60637   1.00
C1       0.85603    0.92267    0.60637   1.00
C1       0.07733    0.93337    0.60637   1.00
O1       0.00000    0.00000    0.92530   1.00
Zn1      0.00000    0.00000    0.95440   1.00
Zn1      0.04287    0.94843    0.91643   1.00
Zn1      0.05157    0.09443    0.91643   1.00
Zn1      0.90557    0.95713    0.91643   1.00
O2       0.02610    0.93860    0.96440   1.00
O2       0.06140    0.08750    0.96440   1.00
O2       0.91250    0.97390    0.96440   1.00
O2       0.07160    0.91300    0.93850   1.00
O2       0.12027    0.00463    0.89923   1.00
O2       0.98077    0.87413    0.89963   1.00
O2       0.08700    0.15860    0.93850   1.00
O2       0.12587    0.10663    0.89963   1.00
O2       0.99537    0.11563    0.89923   1.00
O2       0.84140    0.92840    0.93850   1.00
O2       0.88437    0.87973    0.89923   1.00
O2       0.89337    0.01923    0.89963   1.00
C1       0.06020    0.91390    0.95670   1.00
C1       0.08610    0.14630    0.95670   1.00
C1       0.85370    0.93980    0.95670   1.00
C1       0.14397    0.06663    0.89363   1.00
C1       0.92267    0.85603    0.89363   1.00
C1       0.93337    0.07733    0.89363   1.00
O1       0.00000    0.00000    0.42530   1.00
Zn1      0.00000    0.00000    0.45440   1.00
Zn1      0.05157    0.95713    0.41643   1.00
Zn1      0.90557    0.94843    0.41643   1.00
Zn1      0.04287    0.09443    0.41643   1.00
O2       0.06140    0.97390    0.46440   1.00
O2       0.91250    0.93860    0.46440   1.00
O2       0.02610    0.08750    0.46440   1.00
O2       0.08700    0.92840    0.43850   1.00
O2       0.99537    0.87973    0.39923   1.00
O2       0.12587    0.01923    0.39963   1.00
O2       0.84140    0.91300    0.43850   1.00
O2       0.89337    0.87413    0.39963   1.00
O2       0.88437    0.00463    0.39923   1.00
O2       0.07160    0.15860    0.43850   1.00
O2       0.12027    0.11563    0.39923   1.00
O2       0.98077    0.10663    0.39963   1.00
C1       0.08610    0.93980    0.45670   1.00
C1       0.85370    0.91390    0.45670   1.00
C1       0.06020    0.14630    0.45670   1.00
C1       0.93337    0.85603    0.39363   1.00
C1       0.14397    0.07733    0.39363   1.00
C1       0.92267    0.06663    0.39363   1.00
O1       0.00000    0.00000    0.07470   1.00
Zn1      0.00000    0.00000    0.04560   1.00
Zn1      0.95713    0.05157    0.08357   1.00
Zn1      0.94843    0.90557    0.08357   1.00
Zn1      0.09443    0.04287    0.08357   1.00
O2       0.97390    0.06140    0.03560   1.00
O2       0.93860    0.91250    0.03560   1.00
O2       0.08750    0.02610    0.03560   1.00
O2       0.92840    0.08700    0.06150   1.00
O2       0.87973    0.99537    0.10077   1.00
O2       0.01923    0.12587    0.10037   1.00
O2       0.91300    0.84140    0.06150   1.00
O2       0.87413    0.89337    0.10037   1.00
O2       0.00463    0.88437    0.10077   1.00
O2       0.15860    0.07160    0.06150   1.00
O2       0.11563    0.12027    0.10077   1.00
O2       0.10663    0.98077    0.10037   1.00
C1       0.93980    0.08610    0.04330   1.00
C1       0.91390    0.85370    0.04330   1.00
C1       0.14630    0.06020    0.04330   1.00
C1       0.85603    0.93337    0.10637   1.00
C1       0.07733    0.14397    0.10637   1.00
C1       0.06663    0.92267    0.10637   1.00
O1       0.66667    0.33333    0.90803   1.00
Zn1      0.66667    0.33333    0.87893   1.00
Zn1      0.61510    0.37620    0.91690   1.00
Zn1      0.76110    0.38490    0.91690   1.00
Zn1      0.62380    0.23890    0.91690   1.00
O2       0.60527    0.35943    0.86893   1.00
O2       0.75417    0.39473    0.86893   1.00
O2       0.64057    0.24583    0.86893   1.00
O2       0.57967    0.40493    0.89483   1.00
O2       0.67130    0.45360    0.93410   1.00
O2       0.54080    0.31410    0.93370   1.00
O2       0.82527    0.42033    0.89483   1.00
O2       0.77330    0.45920    0.93370   1.00
O2       0.78230    0.32870    0.93410   1.00
O2       0.59507    0.17473    0.89483   1.00
O2       0.54640    0.21770    0.93410   1.00
O2       0.68590    0.22670    0.93370   1.00
C1       0.58057    0.39353    0.87663   1.00
C1       0.81297    0.41943    0.87663   1.00
C1       0.60647    0.18703    0.87663   1.00
C1       0.73330    0.47730    0.93970   1.00
C1       0.52270    0.25600    0.93970   1.00
C1       0.74400    0.26670    0.93970   1.00
O1       0.66667    0.33333    0.25863   1.00
Zn1      0.66667    0.33333    0.28773   1.00
Zn1      0.70953    0.28177    0.24977   1.00
Zn1      0.71823    0.42777    0.24977   1.00
Zn1      0.57223    0.29047    0.24977   1.00
O2       0.69277    0.27193    0.29773   1.00
O2       0.72807    0.42083    0.29773   1.00
O2       0.57917    0.30723    0.29773   1.00
O2       0.73827    0.24633    0.27183   1.00
O2       0.78693    0.33797    0.23257   1.00
O2       0.64743    0.20747    0.23297   1.00
O2       0.75367    0.49193    0.27183   1.00
O2       0.79253    0.43997    0.23297   1.00
O2       0.66203    0.44897    0.23257   1.00
O2       0.50807    0.26173    0.27183   1.00
O2       0.55103    0.21307    0.23257   1.00
O2       0.56003    0.35257    0.23297   1.00
C1       0.72687    0.24723    0.29003   1.00
C1       0.75277    0.47963    0.29003   1.00
C1       0.52037    0.27313    0.29003   1.00
C1       0.81063    0.39997    0.22697   1.00
C1       0.58933    0.18937    0.22697   1.00
C1       0.60003    0.41067    0.22697   1.00
O1       0.66667    0.33333    0.75863   1.00
Zn1      0.66667    0.33333    0.78773   1.00
Zn1      0.71823    0.29047    0.74977   1.00
Zn1      0.57223    0.28177    0.74977   1.00
Zn1      0.70953    0.42777    0.74977   1.00
O2       0.72807    0.30723    0.79773   1.00
O2       0.57917    0.27193    0.79773   1.00
O2       0.69277    0.42083    0.79773   1.00
O2       0.75367    0.26173    0.77183   1.00
O2       0.66203    0.21307    0.73257   1.00
O2       0.79253    0.35257    0.73297   1.00
O2       0.50807    0.24633    0.77183   1.00
O2       0.56003    0.20747    0.73297   1.00
O2       0.55103    0.33797    0.73257   1.00
O2       0.73827    0.49193    0.77183   1.00
O2       0.78693    0.44897    0.73257   1.00
O2       0.64743    0.43997    0.73297   1.00
C1       0.75277    0.27313    0.79003   1.00
C1       0.52037    0.24723    0.79003   1.00
C1       0.72687    0.47963    0.79003   1.00
C1       0.60003    0.18937    0.72697   1.00
C1       0.81063    0.41067    0.72697   1.00
C1       0.58933    0.39997    0.72697   1.00
O1       0.66667    0.33333    0.40803   1.00
Zn1      0.66667    0.33333    0.37893   1.00
Zn1      0.62380    0.38490    0.41690   1.00
Zn1      0.61510    0.23890    0.41690   1.00
Zn1      0.76110    0.37620    0.41690   1.00
O2       0.64057    0.39473    0.36893   1.00
O2       0.60527    0.24583    0.36893   1.00
O2       0.75417    0.35943    0.36893   1.00
O2       0.59507    0.42033    0.39483   1.00
O2       0.54640    0.32870    0.43410   1.00
O2       0.68590    0.45920    0.43370   1.00
O2       0.57967    0.17473    0.39483   1.00
O2       0.54080    0.22670    0.43370   1.00
O2       0.67130    0.21770    0.43410   1.00
O2       0.82527    0.40493    0.39483   1.00
O2       0.78230    0.45360    0.43410   1.00
O2       0.77330    0.31410    0.43370   1.00
C1       0.60647    0.41943    0.37663   1.00
C1       0.58057    0.18703    0.37663   1.00
C1       0.81297    0.39353    0.37663   1.00
C1       0.52270    0.26670    0.43970   1.00
C1       0.74400    0.47730    0.43970   1.00
C1       0.73330    0.25600    0.43970   1.00
O1       0.33333    0.66667    0.24137   1.00
Zn1      0.33333    0.66667    0.21227   1.00
Zn1      0.28177    0.70953    0.25023   1.00
Zn1      0.42777    0.71823    0.25023   1.00
Zn1      0.29047    0.57223    0.25023   1.00
O2       0.27193    0.69277    0.20227   1.00
O2       0.42083    0.72807    0.20227   1.00
O2       0.30723    0.57917    0.20227   1.00
O2       0.24633    0.73827    0.22817   1.00
O2       0.33797    0.78693    0.26743   1.00
O2       0.20747    0.64743    0.26703   1.00
O2       0.49193    0.75367    0.22817   1.00
O2       0.43997    0.79253    0.26703   1.00
O2       0.44897    0.66203    0.26743   1.00
O2       0.26173    0.50807    0.22817   1.00
O2       0.21307    0.55103    0.26743   1.00
O2       0.35257    0.56003    0.26703   1.00
C1       0.24723    0.72687    0.20997   1.00
C1       0.47963    0.75277    0.20997   1.00
C1       0.27313    0.52037    0.20997   1.00
C1       0.39997    0.81063    0.27303   1.00
C1       0.18937    0.58933    0.27303   1.00
C1       0.41067    0.60003    0.27303   1.00
O1       0.33333    0.66667    0.59197   1.00
Zn1      0.33333    0.66667    0.62107   1.00
Zn1      0.37620    0.61510    0.58310   1.00
Zn1      0.38490    0.76110    0.58310   1.00
Zn1      0.23890    0.62380    0.58310   1.00
O2       0.35943    0.60527    0.63107   1.00
O2       0.39473    0.75417    0.63107   1.00
O2       0.24583    0.64057    0.63107   1.00
O2       0.40493    0.57967    0.60517   1.00
O2       0.45360    0.67130    0.56590   1.00
O2       0.31410    0.54080    0.56630   1.00
O2       0.42033    0.82527    0.60517   1.00
O2       0.45920    0.77330    0.56630   1.00
O2       0.32870    0.78230    0.56590   1.00
O2       0.17473    0.59507    0.60517   1.00
O2       0.21770    0.54640    0.56590   1.00
O2       0.22670    0.68590    0.56630   1.00
C1       0.39353    0.58057    0.62337   1.00
C1       0.41943    0.81297    0.62337   1.00
C1       0.18703    0.60647    0.62337   1.00
C1       0.47730    0.73330    0.56030   1.00
C1       0.25600    0.52270    0.56030   1.00
C1       0.26670    0.74400    0.56030   1.00
O1       0.33333    0.66667    0.09197   1.00
Zn1      0.33333    0.66667    0.12107   1.00
Zn1      0.38490    0.62380    0.08310   1.00
Zn1      0.23890    0.61510    0.08310   1.00
Zn1      0.37620    0.76110    0.08310   1.00
O2       0.39473    0.64057    0.13107   1.00
O2       0.24583    0.60527    0.13107   1.00
O2       0.35943    0.75417    0.13107   1.00
O2       0.42033    0.59507    0.10517   1.00
O2       0.32870    0.54640    0.06590   1.00
O2       0.45920    0.68590    0.06630   1.00
O2       0.17473    0.57967    0.10517   1.00
O2       0.22670    0.54080    0.06630   1.00
O2       0.21770    0.67130    0.06590   1.00
O2       0.40493    0.82527    0.10517   1.00
O2       0.45360    0.78230    0.06590   1.00
O2       0.31410    0.77330    0.06630   1.00
C1       0.41943    0.60647    0.12337   1.00
C1       0.18703    0.58057    0.12337   1.00
C1       0.39353    0.81297    0.12337   1.00
C1       0.26670    0.52270    0.06030   1.00
C1       0.47730    0.74400    0.06030   1.00
C1       0.25600    0.73330    0.06030   1.00
O1       0.33333    0.66667    0.74137   1.00
Zn1      0.33333    0.66667    0.71227   1.00
Zn1      0.29047    0.71823    0.75023   1.00
Zn1      0.28177    0.57223    0.75023   1.00
Zn1      0.42777    0.70953    0.75023   1.00
O2       0.30723    0.72807    0.70227   1.00
O2       0.27193    0.57917    0.70227   1.00
O2       0.42083    0.69277    0.70227   1.00
O2       0.26173    0.75367    0.72817   1.00
O2       0.21307    0.66203    0.76743   1.00
O2       0.35257    0.79253    0.76703   1.00
O2       0.24633    0.50807    0.72817   1.00
O2       0.20747    0.56003    0.76703   1.00
O2       0.33797    0.55103    0.76743   1.00
O2       0.49193    0.73827    0.72817   1.00
O2       0.44897    0.78693    0.76743   1.00
O2       0.43997    0.64743    0.76703   1.00
C1       0.27313    0.75277    0.70997   1.00
C1       0.24723    0.52037    0.70997   1.00
C1       0.47963    0.72687    0.70997   1.00
C1       0.18937    0.60003    0.77303   1.00
C1       0.41067    0.81063    0.77303   1.00
C1       0.39997    0.58933    0.77303   1.00
C5       0.87664    0.95573    0.50086   1.00
H2       0.84635    0.94397    0.51504   1.00
H2       0.83982    0.94382    0.48825   1.00
C5       0.93163    1.03224    0.50056   1.00
H2       0.90944    1.06392    0.49548   1.00
H2       0.97380    1.04079    0.49012   1.00
O_3      0.95197    0.71214    0.46466   1.00
C4       0.86769    0.69574    0.49807   1.00
C3c      0.85460    0.75009    0.49705   1.00
H1       0.82616    0.75356    0.48438   1.00
C3d      0.90399    0.69162    0.51484   1.00
C3       0.87861    0.80110    0.51208   1.00
O2       0.85678    0.84792    0.51136   1.00
C3       0.92909    0.74303    0.52964   1.00
H1       0.95874    0.73900    0.54185   1.00
C2       0.91695    0.79875    0.52873   1.00
C5       1.00358    0.69670    0.46938   1.00
H2       1.00302    0.65765    0.45895   1.00
H2       0.99815    0.67746    0.48524   1.00
C5       1.07179    0.76201    0.46723   1.00
H2       1.07163    0.80162    0.47722   1.00
H2       1.07694    0.78041    0.45129   1.00
C5       1.13089    0.75029    0.47281   1.00
H2       1.13107    0.71045    0.46299   1.00
H2       1.12709    0.73420    0.48893   1.00
H2       1.18038    0.79820    0.47072   1.00
C5       0.86985    0.58289    0.52499   1.00
C5       0.90439    0.90642    0.50053   1.00
H2       0.82210    0.56129    0.51592   1.00
H2       0.85891    0.59343    0.54066   1.00
H2       0.90872    0.89244    0.48459   1.00
H2       0.95656    0.93098    0.50737   1.00
H2       0.95284    1.05076    0.51607   1.00
H2       0.79754    0.43777    0.51751   1.00
H2       0.80534    0.45856    0.54436   1.00
C2       0.80272    0.54332    0.45170   1.00
C3       0.75819    0.53574    0.46775   1.00
O2       0.70137    0.47320    0.47160   1.00
C3       0.86718    0.60354    0.45087   1.00
H1       0.90174    0.61169    0.43849   1.00
C3a      0.77941    0.58694    0.48272   1.00
H1       0.74630    0.57860    0.49553   1.00
C3b      0.88898    0.65333    0.46613   1.00
C4       0.84508    0.64524    0.48224   1.00
O_3      0.92265    0.64208    0.51579   1.00
C5       0.64235    0.47167    0.46402   1.00
H2       0.63472    0.51206    0.47118   1.00
C5       0.58178    0.40146    0.46917   1.00
H2       0.64554    0.47910    0.44726   1.00
H2       0.56777    0.40170    0.48534   1.00
H2       0.59964    0.36382    0.46796   1.00
C5       0.51969    0.38093    0.45528   1.00
H2       0.50594    0.42167    0.45543   1.00
H2       0.47497    0.33244    0.46054   1.00
H2       0.53037    0.37200    0.43935   1.00
C5       0.89311    0.53046    0.52604   1.00
H2       0.93351    0.54694    0.53784   1.00
H2       0.91720    0.53084    0.51127   1.00
C5       0.83359    0.45838    0.53058   1.00
H2       0.85341    0.42301    0.53333   1.00
C5       0.29846    0.26419    0.57941   1.00
H2       0.25093    0.26618    0.57708   1.00
H2       0.34105    0.31701    0.57693   1.00
C5       0.30020    0.24083    0.60135   1.00
H2       0.31810    0.28428    0.61214   1.00
H2       0.33498    0.21946    0.60225   1.00
O_3      0.41491    0.14989    0.49919   1.00
C4       0.30327    0.17210    0.49779   1.00
C3c      0.30783    0.20896    0.51542   1.00
H1       0.35079    0.25976    0.51746   1.00
C3d      0.24638    0.10637    0.49528   1.00
C3       0.25794    0.18081    0.53075   1.00
O2       0.26144    0.22282    0.54635   1.00
C3       0.19729    0.07769    0.51070   1.00
H1       0.15583    0.02621    0.50842   1.00
C2       0.20150    0.11397    0.52872   1.00
C5       0.39817    0.08423    0.49236   1.00
H2       0.43250    0.08619    0.47994   1.00
H2       0.34456    0.05557    0.48672   1.00
C5       0.40577    0.04618    0.51023   1.00
H2       0.37292    0.04590    0.52285   1.00
H2       0.45962    0.07491    0.51561   1.00
C5       0.38612    -0.02687   0.50428   1.00
H2       0.41842    -0.02698   0.49159   1.00
H2       0.33168    -0.05631   0.49958   1.00
H2       0.39344    -0.05338   0.51741   1.00
C5       0.21072    0.07950    0.46250   1.00
C5       0.29838    0.21698    0.56277   1.00
H2       0.24135    0.13344    0.45745   1.00
H2       0.15835    0.06876    0.46646   1.00
H2       0.35166    0.23337    0.55798   1.00
H2       0.27522    0.16350    0.56855   1.00
H2       0.24817    0.20148    0.60656   1.00
H2       0.23408    0.10517    0.41951   1.00
H2       0.14410    0.06135    0.42611   1.00
C2       0.45714    0.25187    0.45169   1.00
C3       0.40355    0.26669    0.45127   1.00
O2       0.39015    0.29168    0.43385   1.00
C3       0.46026    0.21330    0.46812   1.00
H1       0.50161    0.20258    0.46916   1.00
C3a      0.35391    0.24151    0.46677   1.00
H1       0.31109    0.24999    0.46561   1.00
C3b      0.40962    0.18649    0.48316   1.00
C4       0.35580    0.20038    0.48255   1.00
O_3      0.24209    0.06603    0.47895   1.00
C5       0.41626    0.36257    0.43559   1.00
H2       0.39301    0.37475    0.44871   1.00
C5       0.39840    0.38603    0.41591   1.00
H2       0.47270    0.39016    0.43758   1.00
H2       0.34419    0.37334    0.41675   1.00
H2       0.40155    0.35488    0.40333   1.00
C5       0.44543    0.46273    0.41170   1.00
H2       0.44580    0.49276    0.42508   1.00
H2       0.42738    0.47899    0.39825   1.00
H2       0.49867    0.47480    0.40825   1.00
C5       0.20597    0.03321    0.44507   1.00
H2       0.16612    -0.02000   0.44883   1.00
H2       0.25535    0.03376    0.44405   1.00
C5       0.19010    0.05587    0.42476   1.00
H2       0.17999    0.01715    0.41287   1.00
C5       0.76626    0.08094    0.58348   1.00
H2       0.75475    0.02721    0.58283   1.00
H2       0.71624    0.07876    0.58244   1.00
C5       0.80157    0.11326    0.60385   1.00
H2       0.76333    0.09882    0.61623   1.00
H2       0.83085    0.16981    0.60247   1.00
O_3      0.87160    0.27096    0.49438   1.00
C4       0.82774    0.13109    0.49781   1.00
C3c      0.79735    0.11125    0.51703   1.00
H1       0.75163    0.11327    0.52034   1.00
C3d      0.88674    0.12715    0.49371   1.00
C3       0.82570    0.08954    0.53231   1.00
O2       0.78869    0.06310    0.54984   1.00
C3       0.91582    0.10680    0.50901   1.00
H1       0.96243    0.10689    0.50539   1.00
C2       0.88617    0.08727    0.52861   1.00
C5       0.93555    0.30804    0.48469   1.00
H2       0.93375    0.33754    0.47141   1.00
H2       0.95414    0.27343    0.47935   1.00
C5       0.98568    0.35781    0.50008   1.00
H2       0.98604    0.32850    0.51360   1.00
H2       0.96694    0.39249    0.50516   1.00
C5       1.05741    0.39870    0.49097   1.00
H2       1.05733    0.42773    0.47738   1.00
H2       1.07712    0.36432    0.48654   1.00
H2       1.09300    0.43585    0.50229   1.00
C5       0.89407    0.09807    0.46106   1.00
C5       0.80894    0.11517    0.56454   1.00
H2       0.83958    0.08093    0.45793   1.00
H2       0.89818    0.05323    0.46611   1.00
H2       0.79857    0.15562    0.55894   1.00
H2       0.86457    0.14024    0.56817   1.00
H2       0.83683    0.09464    0.60861   1.00
H2       0.85100    0.08121    0.41919   1.00
H2       0.88503    0.02650    0.42633   1.00
C2       0.74838    0.20482    0.45149   1.00
C3       0.72301    0.13411    0.45360   1.00
O2       0.68600    0.08988    0.43815   1.00
C3       0.79762    0.24960    0.46557   1.00
H1       0.81676    0.30384    0.46468   1.00
C3a      0.74832    0.11011    0.46920   1.00
H1       0.73125    0.05622    0.46990   1.00
C3b      0.82427    0.22576    0.48065   1.00
C4       0.79977    0.15556    0.48254   1.00
O_3      0.92149    0.15094    0.47557   1.00
C5       0.61577    0.05594    0.44278   1.00
H2       0.60476    0.02612    0.45715   1.00
C5       0.57858    0.00727    0.42517   1.00
H2       0.59714    0.09289    0.44437   1.00
H2       0.58301    -0.03921   0.42710   1.00
H2       0.60655    0.03258    0.41099   1.00
C5       0.50307    -0.01205   0.42355   1.00
H2       0.47727    -0.03223   0.43834   1.00
H2       0.47639    -0.05177   0.41171   1.00
H2       0.49793    0.03278    0.41904   1.00
C5       0.93458    0.12613    0.44155   1.00
H2       0.98609    0.13218    0.44374   1.00
H2       0.94216    0.17809    0.43895   1.00
C5       0.89830    0.08003    0.42320   1.00
H2       0.93235    0.09813    0.40974   1.00
C5       0.96726    0.90270    0.00216   1.00
H2       0.95805    0.86931    -0.01120   1.00
H2       0.95863    0.87011    0.01569   1.00
C5       1.04172    0.96254    0.00175   1.00
H2       1.07723    0.94633    0.00788   1.00
H2       1.04634    1.00580    0.01098   1.00
O_3      0.70429    0.95727    0.03287   1.00
C4       0.69577    0.86763    0.00195   1.00
C3c      0.75408    0.86131    0.00404   1.00
H1       0.76070    0.83823    0.01756   1.00
C3d      0.68765    0.89697    -0.01592   1.00
C3       0.80501    0.88536    -0.01102   1.00
O2       0.85632    0.86995    -0.00905   1.00
C3       0.73888    0.92215    -0.03077   1.00
H1       0.73155    0.94643    -0.04388   1.00
C2       0.79853    0.91684    -0.02879   1.00
C5       0.68276    1.00294    0.02641   1.00
H2       0.64192    1.00100    0.03632   1.00
H2       0.66312    0.99169    0.01054   1.00
C5       0.74412    1.07450    0.02730   1.00
H2       0.78562    1.07593    0.01786   1.00
H2       0.76290    1.08541    0.04325   1.00
C5       0.72569    1.12738    0.01981   1.00
H2       0.68395    1.12590    0.02908   1.00
H2       0.70919    1.11794    0.00366   1.00
H2       0.77077    1.17950    0.02099   1.00
C5       0.57724    0.85080    -0.02635   1.00
C5       0.91271    0.92368    0.00103   1.00
H2       0.55958    0.80598    -0.01615   1.00
H2       0.58937    0.83755    -0.04150   1.00
H2       0.89766    0.93042    0.01660   1.00
H2       0.93302    0.97355    -0.00706   1.00
H2       1.05889    0.98041    -0.01411   1.00
H2       0.43269    0.76946    -0.01854   1.00
H2       0.45361    0.77202    -0.04526   1.00
C2       0.54292    0.80253    0.04819   1.00
C3       0.53956    0.75570    0.03345   1.00
O2       0.47991    0.69469    0.03056   1.00
C3       0.59933    0.86969    0.04781   1.00
H1       0.60431    0.90624    0.05919   1.00
C3a      0.59097    0.77715    0.01854   1.00
H1       0.58563    0.74182    0.00668   1.00
C3b      0.64920    0.89146    0.03258   1.00
C4       0.64524    0.84516    0.01775   1.00
O_3      0.63380    0.90906    -0.01805   1.00
C5       0.48445    0.64101    0.03987   1.00
H2       0.52754    0.63623    0.03348   1.00
C5       0.41715    0.57534    0.03570   1.00
H2       0.49194    0.64913    0.05656   1.00
H2       0.41881    0.55798    0.02002   1.00
H2       0.37586    0.58847    0.03588   1.00
C5       0.40211    0.51839    0.05116   1.00
H2       0.44622    0.50972    0.05193   1.00
H2       0.35592    0.46988    0.04666   1.00
H2       0.39169    0.53163    0.06658   1.00
C5       0.51988    0.86687    -0.02877   1.00
H2       0.53293    0.90352    -0.04154   1.00
H2       0.51782    0.89339    -0.01478   1.00
C5       0.45051    0.80214    -0.03239   1.00
H2       0.41140    0.81633    -0.03617   1.00
C5       0.26383    0.29873    -0.07948   1.00
H2       0.26596    0.25125    -0.07717   1.00
H2       0.31663    0.34139    -0.07702   1.00
C5       0.24031    0.30041    -0.10140   1.00
H2       0.28371    0.31840    -0.11221   1.00
H2       0.21882    0.33510    -0.10227   1.00
O_3      0.14958    0.41471    0.00087   1.00
C4       0.17211    0.30327    0.00221   1.00
C3c      0.20889    0.30792    -0.01544   1.00
H1       0.25963    0.35096    -0.01751   1.00
C3d      0.10645    0.24629    0.00474   1.00
C3       0.18073    0.25803    -0.03077   1.00
O2       0.22270    0.26164    -0.04640   1.00
C3       0.07776    0.19720    -0.01067   1.00
H1       0.02633    0.15566    -0.00838   1.00
C2       0.11397    0.20150    -0.02872   1.00
C5       0.08393    0.39784    0.00774   1.00
H2       0.08587    0.43213    0.02018   1.00
H2       0.05539    0.34422    0.01338   1.00
C5       0.04570    0.40534    -0.01010   1.00
H2       0.04542    0.37253    -0.02273   1.00
H2       0.07430    0.45919    -0.01548   1.00
C5       -0.02736   0.38553    -0.00411   1.00
H2       -0.02747   0.41778    0.00860   1.00
H2       -0.05667   0.33109    0.00060   1.00
H2       -0.05400   0.39278    -0.01721   1.00
C5       0.07983    0.21060    0.03753   1.00
C5       0.21666    0.29852    -0.06280   1.00
H2       0.13379    0.24132    0.04256   1.00
H2       0.06918    0.15827    0.03356   1.00
H2       0.23297    0.35177    -0.05801   1.00
H2       0.16314    0.27526    -0.06855   1.00
H2       0.20100    0.24835    -0.10660   1.00
H2       0.10572    0.23397    0.08051   1.00
H2       0.06203    0.14399    0.07390   1.00
C2       0.25186    0.45713    0.04831   1.00
C3       0.26684    0.40365    0.04870   1.00
O2       0.29199    0.39032    0.06610   1.00
C3       0.21314    0.46016    0.03191   1.00
H1       0.20231    0.50143    0.03089   1.00
C3a      0.24165    0.35400    0.03320   1.00
H1       0.25026    0.31126    0.03433   1.00
C3b      0.18634    0.40952    0.01687   1.00
C4       0.20037    0.35580    0.01745   1.00
O_3      0.06616    0.24190    0.02110   1.00
C5       0.36289    0.41657    0.06432   1.00
H2       0.37507    0.39338    0.05118   1.00
C5       0.38654    0.39878    0.08397   1.00
H2       0.39037    0.47300    0.06233   1.00
H2       0.37397    0.34461    0.08312   1.00
H2       0.35543    0.40185    0.09658   1.00
C5       0.46325    0.44594    0.08814   1.00
H2       0.49323    0.44639    0.07474   1.00
H2       0.47965    0.42795    0.10158   1.00
H2       0.47523    0.49915    0.09160   1.00
C5       0.03360    0.20573    0.05499   1.00
H2       -0.01961   0.16580    0.05125   1.00
H2       0.03403    0.25505    0.05603   1.00
C5       0.05644    0.18993    0.07528   1.00
H2       0.01777    0.17973    0.08719   1.00
C5       0.08093    0.76625    -0.08347   1.00
H2       0.02720    0.75474    -0.08283   1.00
H2       0.07874    0.71623    -0.08244   1.00
C5       0.11325    0.80156    -0.10385   1.00
H2       0.09881    0.76331    -0.11623   1.00
H2       0.16980    0.83084    -0.10247   1.00
O_3      0.27096    0.87160    0.00562   1.00
C4       0.13109    0.82774    0.00219   1.00
C3c      0.11125    0.79735    -0.01703   1.00
H1       0.11326    0.75163    -0.02034   1.00
C3d      0.12715    0.88674    0.00629   1.00
C3       0.08954    0.82570    -0.03231   1.00
O2       0.06310    0.78868    -0.04984   1.00
C3       0.10680    0.91583    -0.00902   1.00
H1       0.10690    0.96243    -0.00539   1.00
C2       0.08727    0.88617    -0.02861   1.00
C5       0.30804    0.93554    0.01530   1.00
H2       0.33755    0.93375    0.02859   1.00
H2       0.27344    0.95414    0.02065   1.00
C5       0.35781    0.98567    -0.00008   1.00
H2       0.32850    0.98603    -0.01361   1.00
H2       0.39249    0.96693    -0.00516   1.00
C5       0.39871    1.05740    0.00902   1.00
H2       0.42773    1.05732    0.02262   1.00
H2       0.36432    1.07711    0.01346   1.00
H2       0.43585    1.09299    -0.00230   1.00
C5       0.09808    0.89408    0.03894   1.00
C5       0.11516    0.80893    -0.06454   1.00
H2       0.08093    0.83958    0.04207   1.00
H2       0.05324    0.89819    0.03389   1.00
H2       0.15561    0.79856    -0.05894   1.00
H2       0.14023    0.86457    -0.06817   1.00
H2       0.09463    0.83682    -0.10861   1.00
H2       0.08122    0.85101    0.08081   1.00
H2       0.02651    0.88504    0.07367   1.00
C2       0.20482    0.74838    0.04851   1.00
C3       0.13411    0.72301    0.04640   1.00
O2       0.08988    0.68601    0.06185   1.00
C3       0.24960    0.79762    0.03443   1.00
H1       0.30384    0.81675    0.03532   1.00
C3a      0.11011    0.74832    0.03080   1.00
H1       0.05622    0.73126    0.03010   1.00
C3b      0.22576    0.82427    0.01935   1.00
C4       0.15556    0.79977    0.01746   1.00
O_3      0.15094    0.92150    0.02443   1.00
C5       0.05593    0.61578    0.05722   1.00
H2       0.02612    0.60476    0.04285   1.00
C5       0.00727    0.57859    0.07483   1.00
H2       0.09289    0.59714    0.05563   1.00
H2       -0.03921   0.58302    0.07290   1.00
H2       0.03258    0.60656    0.08901   1.00
C5       -0.01206   0.50308    0.07646   1.00
H2       -0.03224   0.47728    0.06166   1.00
H2       -0.05177   0.47640    0.08830   1.00
H2       0.03277    0.49793    0.08096   1.00
C5       0.12614    0.93459    0.05845   1.00
H2       0.13219    0.98610    0.05626   1.00
H2       0.17810    0.94217    0.06104   1.00
C5       0.08004    0.89831    0.07680   1.00
H2       0.09815    0.93236    0.09026   1.00
C5       0.08287    0.31520    0.41640   1.00
H2       0.11768    0.29671    0.41146   1.00
H2       0.11303    0.37170    0.41540   1.00
C5       0.02069    0.28688    0.40198   1.00
H2       0.03349    0.31799    0.38789   1.00
H2       -0.02284   0.28733    0.40968   1.00
O_3      0.04059    0.33762    0.52015   1.00
C4       0.13240    0.30370    0.50211   1.00
C3c      0.13489    0.32024    0.48148   1.00
H1       0.15496    0.37281    0.47703   1.00
C3d      0.10697    0.23501    0.50756   1.00
C3       0.11084    0.26955    0.46635   1.00
O2       0.12256    0.29035    0.44641   1.00
C3       0.08178    0.18427    0.49256   1.00
H1       0.06054    0.13204    0.49753   1.00
C2       0.08323    0.20002    0.47165   1.00
C5       -0.00153   0.28953    0.53483   1.00
H2       0.00127    0.31367    0.54980   1.00
H2       0.01277    0.24943    0.53709   1.00
C5       -0.07452   0.25627    0.52719   1.00
H2       -0.07692   0.23380    0.51196   1.00
H2       -0.08845   0.29666    0.52517   1.00
C5       -0.12366   0.20130    0.54197   1.00
H2       -0.12117   0.22330    0.55724   1.00
H2       -0.11124   0.15975    0.54345   1.00
H2       -0.17691   0.17863    0.53635   1.00
C5       0.15953    0.22047    0.53506   1.00
C5       0.06581    0.29301    0.43857   1.00
H2       0.20252    0.27394    0.53440   1.00
H2       0.17385    0.18737    0.52628   1.00
H2       0.05791    0.33086    0.44722   1.00
H2       0.01747    0.24276    0.43958   1.00
H2       0.00465    0.23369    0.39707   1.00
H2       0.24550    0.27423    0.57044   1.00
H2       0.24566    0.20020    0.55985   1.00
C2       0.19760    0.45450    0.54897   1.00
C3       0.24530    0.44090    0.53938   1.00
O2       0.30826    0.46240    0.54807   1.00
C3       0.12934    0.41975    0.54202   1.00
H1       0.09199    0.43031    0.54868   1.00
C3a      0.22370    0.39224    0.52364   1.00
H1       0.25995    0.37957    0.51725   1.00
C3b      0.10757    0.36982    0.52680   1.00
C4       0.15480    0.35559    0.51750   1.00
O_3      0.09864    0.21543    0.52772   1.00
C5       0.35870    0.52130    0.53812   1.00
H2       0.36178    0.51131    0.52168   1.00
C5       0.42680    0.54112    0.54837   1.00
H2       0.34800    0.56412    0.53954   1.00
H2       0.44577    0.50775    0.54231   1.00
H2       0.41640    0.52888    0.56480   1.00
C5       0.48064    0.61691    0.54538   1.00
H2       0.48641    0.62949    0.52895   1.00
H2       0.53094    0.62800    0.55154   1.00
H2       0.46619    0.65101    0.55362   1.00
C5       0.14757    0.19730    0.55710   1.00
H2       0.11313    0.14098    0.55746   1.00
H2       0.11998    0.22036    0.56471   1.00
C5       0.21479    0.21785    0.56830   1.00
H2       0.20381    0.19410    0.58360   1.00
C5       0.70701    0.72901    0.42203   1.00
H2       0.71530    0.77576    0.41406   1.00
H2       0.65138    0.69238    0.42108   1.00
C5       0.74754    0.69989    0.41117   1.00
H2       0.71924    0.66934    0.39765   1.00
H2       0.75654    0.66689    0.42175   1.00
O_3      0.68654    0.72414    0.52741   1.00
C4       0.69614    0.82862    0.50206   1.00
C3c      0.68351    0.80179    0.48231   1.00
H1       0.63401    0.75912    0.47855   1.00
C3d      0.76069    0.88485    0.50657   1.00
C3       0.73444    0.82866    0.46725   1.00
O2       0.71590    0.80532    0.44771   1.00
C3       0.81190    0.91089    0.49171   1.00
H1       0.86134    0.95246    0.49608   1.00
C2       0.80023    0.88388    0.47173   1.00
C5       0.73627    0.74882    0.54289   1.00
H2       0.71322    0.73285    0.55827   1.00
H2       0.76721    0.80563    0.54259   1.00
C5       0.78286    0.71957    0.53923   1.00
H2       0.80440    0.73391    0.52364   1.00
H2       0.75156    0.66286    0.53976   1.00
C5       0.84015    0.74589    0.55505   1.00
H2       0.81900    0.73216    0.57066   1.00
H2       0.87287    0.80230    0.55406   1.00
H2       0.87278    0.72280    0.55240   1.00
C5       0.75793    0.95942    0.52928   1.00
C5       0.72776    0.75057    0.44408   1.00
H2       0.70187    0.93706    0.52766   1.00
H2       0.78402    1.00279    0.51843   1.00
H2       0.69608    0.70735    0.45454   1.00
H2       0.78227    0.76510    0.44653   1.00
H2       0.79764    0.74164    0.40545   1.00
H2       0.68768    0.99199    0.55998   1.00
H2       0.75254    1.06701    0.54678   1.00
C2       0.54595    0.74430    0.54912   1.00
C3       0.54750    0.79409    0.53589   1.00
O2       0.51328    0.82824    0.54083   1.00
C3       0.59264    0.72101    0.54575   1.00
H1       0.59160    0.68167    0.55528   1.00
C3a      0.59616    0.82050    0.52014   1.00
H1       0.59924    0.86136    0.51087   1.00
C3b      0.64238    0.74894    0.53048   1.00
C4       0.64455    0.79919    0.51754   1.00
O_3      0.77735    0.90983    0.52615   1.00
C5       0.45177    0.80131    0.52981   1.00
H2       0.46141    0.80604    0.51311   1.00
C5       0.41763    0.84243    0.53585   1.00
H2       0.41725    0.74651    0.53356   1.00
H2       0.44257    0.89146    0.52733   1.00
H2       0.42885    0.85572    0.55220   1.00
C5       0.34004    0.80368    0.53204   1.00
H2       0.32960    0.78614    0.51603   1.00
H2       0.31802    0.83718    0.53499   1.00
H2       0.31318    0.75884    0.54241   1.00
C5       0.77835    0.98626    0.55082   1.00
H2       0.83489    1.01874    0.55143   1.00
H2       0.76415    0.94203    0.56107   1.00
C5       0.74368    1.02636    0.55788   1.00
H2       0.76507    1.05107    0.57272   1.00
C5       0.26921    0.97469    0.42162   1.00
H2       0.22201    0.93634    0.41382   1.00
H2       0.30531    0.95505    0.42066   1.00
C5       0.29871    1.04404    0.41057   1.00
H2       0.32865    1.04545    0.39699   1.00
H2       0.33238    1.08623    0.42100   1.00
O_3      0.27722    0.96250    0.52702   1.00
C4       0.17137    0.86752    0.50206   1.00
C3c      0.19758    0.88080    0.48224   1.00
H1       0.23975    0.87322    0.47842   1.00
C3d      0.11578    0.87680    0.50665   1.00
C3       0.17072    0.90485    0.46717   1.00
O2       0.19335    0.90872    0.44758   1.00
C3       0.08977    0.90198    0.49179   1.00
H1       0.04872    0.91059    0.49621   1.00
C2       0.11616    0.91638    0.47173   1.00
C5       0.25354    0.98857    0.54250   1.00
H2       0.26979    0.98174    0.55786   1.00
H2       0.19675    0.96326    0.54235   1.00
C5       0.28347    1.06438    0.53862   1.00
H2       0.26882    1.07130    0.52305   1.00
H2       0.34015    1.08921    0.53900   1.00
C5       0.25824    1.09644    0.55442   1.00
H2       0.27228    1.08931    0.57002   1.00
H2       0.20187    1.07331    0.55358   1.00
H2       0.28183    1.15213    0.55161   1.00
C5       0.04142    0.80073    0.52966   1.00
C5       0.24849    0.97491    0.44372   1.00
H2       0.06312    0.76645    0.52807   1.00
H2       -0.00224   0.78354    0.51892   1.00
H2       0.29191    0.98631    0.45407   1.00
H2       0.23466    1.01542    0.44610   1.00
H2       0.25716    1.05280    0.40491   1.00
H2       0.00869    0.69870    0.56063   1.00
H2       -0.06638   0.68902    0.54759   1.00
C2       0.25577    0.80170    0.54911   1.00
C3       0.20525    0.75335    0.53608   1.00
O2       0.17058    0.68516    0.54122   1.00
C3       0.27971    0.87171    0.54555   1.00
H1       0.31960    0.91006    0.55493   1.00
C3a      0.17880    0.77556    0.52032   1.00
H1       0.13742    0.73777    0.51121   1.00
C3b      0.25177    0.89352    0.53028   1.00
C4       0.20081    0.84535    0.51754   1.00
O_3      0.09148    0.86942    0.52629   1.00
C5       0.19652    0.64963    0.53023   1.00
H2       0.19136    0.65406    0.51353   1.00
C5       0.15488    0.57462    0.53650   1.00
H2       0.25135    0.66944    0.53384   1.00
H2       0.10559    0.55074    0.52812   1.00
H2       0.14218    0.57327    0.55288   1.00
C5       0.19273    0.53488    0.53271   1.00
H2       0.20974    0.54127    0.51665   1.00
H2       0.15883    0.47955    0.53583   1.00
H2       0.23785    0.55274    0.54296   1.00
C5       0.01536    0.79534    0.55125   1.00
H2       -0.01656   0.82002    0.55187   1.00
H2       0.06002    0.82533    0.56136   1.00
C5       -0.02523   0.72086    0.55854   1.00
H2       -0.04934   0.71835    0.57344   1.00
C5       0.05863    0.15005    1.00472   1.00
H2       0.02408    0.09426    1.00644   1.00
H2       0.05678    0.16128    0.98841   1.00
C5       0.03246    0.18863    1.01798   1.00
H2       -0.00939   0.19191    1.01016   1.00
H2       0.07483    0.24111    1.02124   1.00
O_3      0.40673    0.26896    0.99665   1.00
C4       0.30357    0.13103    0.99788   1.00
C3c      0.24198    0.13066    0.99491   1.00
H1       0.23259    0.14810    0.98065   1.00
C3d      0.31439    0.10718    1.01646   1.00
C3       0.19217    0.10889    1.01027   1.00
O2       0.12996    0.10209    1.00541   1.00
C3       0.26546    0.08669    1.03192   1.00
H1       0.27705    0.07110    1.04617   1.00
C2       0.20321    0.08670    1.02925   1.00
C5       0.45847    0.28483    1.01114   1.00
H2       0.51013    0.30884    1.00411   1.00
H2       0.44972    0.23823    1.01947   1.00
C5       0.45682    0.33495    1.02613   1.00
H2       0.40463    0.31171    1.03273   1.00
H2       0.46625    0.38151    1.01768   1.00
C5       0.51012    0.35313    1.04290   1.00
H2       0.56232    0.37592    1.03640   1.00
H2       0.49937    0.30705    1.05180   1.00
H2       0.50918    0.39095    1.05345   1.00
C5       0.37502    0.05191    1.01366   1.00
C5       0.12974    0.16281    1.01026   1.00
H2       0.36813    0.04671    0.99693   1.00
H2       0.33340    0.00509    1.02097   1.00
H2       0.16942    0.20626    1.00123   1.00
H2       0.14070    0.17667    1.02666   1.00
H2       0.01068    0.16134    1.03260   1.00
H2       0.46316    0.01833    0.99084   1.00
H2       0.41172    -0.04645   1.00945   1.00
C2       0.46018    0.20380    0.95264   1.00
C3       0.40692    0.13524    0.95232   1.00
O2       0.41314    0.08738    0.94101   1.00
C3       0.45837    0.24788    0.96753   1.00
H1       0.49742    0.30105    0.96786   1.00
C3a      0.35466    0.11204    0.96700   1.00
H1       0.31640    0.05854    0.96727   1.00
C3b      0.40753    0.22414    0.98251   1.00
C4       0.35519    0.15572    0.98236   1.00
O_3      0.37620    0.11132    1.02071   1.00
C5       0.37540    0.07342    0.92286   1.00
H2       0.32016    0.05343    0.92603   1.00
C5       0.38394    0.01935    0.91141   1.00
H2       0.39483    0.12013    0.91333   1.00
H2       0.34886    -0.03140   0.91821   1.00
H2       0.43675    0.02968    0.91429   1.00
C5       0.37074    0.01875    0.88844   1.00
H2       0.31995    0.01380    0.88589   1.00
H2       0.37177    -0.02476   0.88093   1.00
H2       0.41095    0.06622    0.88094   1.00
C5       0.44333    0.05817    1.01899   1.00
H2       0.44500    0.05150    1.03567   1.00
H2       0.48436    0.11104    1.01536   1.00
C5       0.45541    0.00616    1.00737   1.00
H2       0.50208    0.00736    1.01317   1.00
C5       0.71097    0.72826    1.07225   1.00
H2       0.75147    0.73008    1.08217   1.00
H2       0.66839    0.67465    1.07273   1.00
C5       0.68746    0.77694    1.08069   1.00
H2       0.65024    0.75233    1.09327   1.00
H2       0.66318    0.79127    1.06843   1.00
O_3      0.74228    0.70109    0.96812   1.00
C4       0.82854    0.69604    0.99797   1.00
C3c      0.79495    0.68796    1.01654   1.00
H1       0.74691    0.64203    1.01938   1.00
C3d      0.89156    0.75584    0.99469   1.00
C3       0.82202    0.73902    1.03156   1.00
O2       0.79067    0.72404    1.05024   1.00
C3       0.91801    0.80733    1.00946   1.00
H1       0.96528    0.85332    1.00597   1.00
C2       0.88434    0.80032    1.02823   1.00
C5       0.77852    0.74947    0.95281   1.00
H2       0.76602    0.72648    0.93735   1.00
H2       0.83470    0.77348    0.95510   1.00
C5       0.75858    0.80425    0.95397   1.00
H2       0.76928    0.82590    0.96960   1.00
H2       0.70251    0.77982    0.95148   1.00
C5       0.79766    0.86044    0.93824   1.00
H2       0.78759    0.83910    0.92261   1.00
H2       0.85352    0.88646    0.94115   1.00
H2       0.78132    0.89923    0.93902   1.00
C5       0.96666    0.73961    0.97580   1.00
C5       0.74201    0.74574    1.05095   1.00
H2       0.93662    0.68328    0.97763   1.00
H2       1.00602    0.76119    0.98801   1.00
H2       0.70171    0.71818    1.03928   1.00
H2       0.76507    0.80162    1.04797   1.00
H2       0.73126    0.82419    1.08718   1.00
H2       0.99570    0.65742    0.94857   1.00
H2       1.06912    0.71555    0.96371   1.00
C2       0.74511    0.54611    0.95082   1.00
C3       0.78529    0.54053    0.96625   1.00
O2       0.81218    0.49813    0.96377   1.00
C3       0.73066    0.60002    0.95197   1.00
H1       0.69861    0.60468    0.94069   1.00
C3a      0.81131    0.58928    0.98199   1.00
H1       0.84517    0.58655    0.99303   1.00
C3b      0.75841    0.64966    0.96728   1.00
C4       0.79921    0.64465    0.98243   1.00
O_3      0.92409    0.76854    0.97610   1.00
C5       0.77361    0.43725    0.97483   1.00
H2       0.77328    0.44776    0.99136   1.00
C5       0.80720    0.39375    0.97159   1.00
H2       0.71993    0.40888    0.96930   1.00
H2       0.85232    0.41306    0.98177   1.00
H2       0.82709    0.40269    0.95576   1.00
C5       0.75800    0.31713    0.97530   1.00
H2       0.73453    0.30970    0.99057   1.00
H2       0.78558    0.28802    0.97448   1.00
H2       0.71701    0.29499    0.96352   1.00
C5       1.00222    0.75592    0.95528   1.00
H2       1.04108    0.81120    0.95491   1.00
H2       0.96384    0.74723    0.94335   1.00
C5       1.03517    0.71196    0.95099   1.00
H2       1.06648    0.73004    0.93697   1.00
C5       0.97348    0.26854    1.07852   1.00
H2       0.93516    0.22119    1.08626   1.00
H2       0.95360    0.30445    1.07949   1.00
C5       1.04272    0.29818    1.08965   1.00
H2       1.04381    0.32789    1.10324   1.00
H2       1.08497    0.33209    1.07927   1.00
O_3      0.96253    0.27771    0.97312   1.00
C4       0.86753    0.17137    0.99794   1.00
C3c      0.88046    0.19735    1.01778   1.00
H1       0.87261    0.23933    1.02163   1.00
C3d      0.87715    0.11601    0.99332   1.00
C3       0.90451    0.17049    1.03285   1.00
O2       0.90803    0.19285    1.05247   1.00
C3       0.90233    0.09001    1.00818   1.00
H1       0.91122    0.04915    1.00374   1.00
C2       0.91639    0.11617    1.02827   1.00
C5       0.98896    0.25439    0.95765   1.00
H2       0.98224    0.27076    0.94229   1.00
H2       0.96387    0.19762    0.95774   1.00
C5       1.06477    0.28457    0.96160   1.00
H2       1.07158    0.26982    0.97718   1.00
H2       1.08939    0.34124    0.96128   1.00
C5       1.09723    0.25975    0.94582   1.00
H2       1.09020    0.27390    0.93021   1.00
H2       1.07430    0.20339    0.94660   1.00
H2       1.15289    0.28352    0.94868   1.00
C5       0.80154    0.04173    0.97020   1.00
C5       0.97407    0.24814    1.05641   1.00
H2       0.76705    0.06320    0.97178   1.00
H2       0.78439    -0.00203   0.98090   1.00
H2       0.98542    0.29163    1.04610   1.00
H2       1.01478    0.23456    1.05405   1.00
H2       1.05163    0.25671    1.09529   1.00
H2       0.69981    0.00895    0.93914   1.00
H2       0.69031    -0.06614   0.95212   1.00
C2       0.80172    0.25579    0.95089   1.00
C3       0.75334    0.20501    0.96385   1.00
O2       0.68521    0.17016    0.95864   1.00
C3       0.87173    0.27998    0.95452   1.00
H1       0.91010    0.32006    0.94520   1.00
C3a      0.77553    0.17855    0.97961   1.00
H1       0.73774    0.13698    0.98867   1.00
C3b      0.89354    0.25203    0.96979   1.00
C4       0.84535    0.20081    0.98246   1.00
O_3      0.87011    0.09197    0.97366   1.00
C5       0.64933    0.19573    0.96962   1.00
H2       0.65359    0.19041    0.98631   1.00
C5       0.57443    0.15390    0.96326   1.00
H2       0.66897    0.25056    0.96605   1.00
H2       0.55062    0.10452    0.97159   1.00
H2       0.57334    0.14142    0.94688   1.00
C5       0.53436    0.19143    0.96704   1.00
H2       0.54048    0.20823    0.98312   1.00
H2       0.47910    0.15737    0.96385   1.00
H2       0.55217    0.23664    0.95684   1.00
C5       0.79654    0.01596    0.94859   1.00
H2       0.82144    -0.01575   0.94797   1.00
H2       0.82650    0.06078    0.93854   1.00
C5       0.72216    -0.02480   0.94121   1.00
H2       0.71995    -0.04869   0.92630   1.00
C5       0.63753    1.03709    0.91216   1.00
H2       0.68646    1.08514    0.90967   1.00
H2       0.64859    0.99514    0.90950   1.00
C5       0.61337    1.03494    0.93424   1.00
H2       0.64010    1.01778    0.94483   1.00
H2       0.55742    0.99938    0.93538   1.00
O_3      0.40266    0.91687    0.83301   1.00
C4       0.53549    1.03006    0.83111   1.00
C3c      0.56912    1.02627    0.84854   1.00
H1       0.57802    0.98392    0.85042   1.00
C3d      0.52528    1.08618    0.82882   1.00
C3       0.59087    1.07615    0.86387   1.00
O2       0.63065    1.07352    0.87923   1.00
C3       0.54570    1.13523    0.84425   1.00
H1       0.53462    1.17605    0.84215   1.00
C2       0.57912    1.13178    0.86206   1.00
C5       0.35256    0.93241    0.82652   1.00
H2       0.31991    0.89773    0.81420   1.00
H2       0.37637    0.98595    0.82088   1.00
C5       0.30755    0.92402    0.84464   1.00
H2       0.34043    0.95724    0.85716   1.00
H2       0.28356    0.87024    0.85002   1.00
C5       0.25291    0.94236    0.83907   1.00
H2       0.22018    0.90969    0.82648   1.00
H2       0.27680    0.99673    0.83436   1.00
H2       0.21958    0.93448    0.85237   1.00
C5       0.53171    1.12153    0.79609   1.00
C5       0.58906    1.03616    0.89580   1.00
H2       0.55561    1.09167    0.79081   1.00
H2       0.57290    1.17422    0.79994   1.00
H2       0.55264    0.98266    0.89109   1.00
H2       0.55827    1.05847    0.90183   1.00
H2       0.62539    1.08671    0.93952   1.00
H2       0.53226    1.09830    0.75303   1.00
H2       0.57740    1.18832    0.75960   1.00
C2       0.46136    0.87611    0.78505   1.00
C3       0.52933    0.93053    0.78436   1.00
O2       0.56692    0.94452    0.76675   1.00
C3       0.42018    0.87223    0.80171   1.00
H1       0.36850    0.83025    0.80295   1.00
C3a      0.55384    0.98022    0.79985   1.00
H1       0.60472    1.02364    0.79851   1.00
C3b      0.44401    0.92289    0.81674   1.00
C4       0.51126    0.97753    0.81588   1.00
O_3      0.48792    1.08963    0.81272   1.00
C5       0.61276    0.91960    0.76815   1.00
H2       0.64875    0.94337    0.78112   1.00
C5       0.65310    0.93804    0.74828   1.00
H2       0.58488    0.86316    0.77016   1.00
H2       0.69397    0.99254    0.74902   1.00
H2       0.61786    0.93417    0.73590   1.00
C5       0.68379    0.89209    0.74376   1.00
H2       0.71445    0.89237    0.75696   1.00
H2       0.71736    0.91060    0.73015   1.00
H2       0.64311    0.83854    0.74041   1.00
C5       0.48875    1.12532    0.77893   1.00
H2       0.47464    1.16450    0.78288   1.00
H2       0.44038    1.07545    0.77806   1.00
C5       0.52627    1.14174    0.75843   1.00
H2       0.49655    1.15112    0.74674   1.00
C5       -0.01862   0.56700    0.91681   1.00
H2       -0.06083   0.57853    0.91617   1.00
H2       0.02922    0.61701    0.91578   1.00
C5       -0.02163   0.53167    0.93719   1.00
H2       0.00219    0.56990    0.94957   1.00
H2       0.00563    0.50238    0.93580   1.00
O_3      0.06599    0.46169    0.82770   1.00
C4       -0.02999   0.50559    0.83114   1.00
C3c      -0.01942   0.53597    0.85036   1.00
H1       0.02832    0.58167    0.85368   1.00
C3d      -0.09293   0.44661    0.82704   1.00
C3       -0.06948   0.50761    0.86564   1.00
O2       -0.05889   0.54462    0.88317   1.00
C3       -0.14237   0.41752    0.84234   1.00
H1       -0.18889   0.37093    0.83872   1.00
C2       -0.13223   0.44716    0.86194   1.00
C5       0.03911    0.39775    0.81801   1.00
H2       0.07040    0.39955    0.80472   1.00
H2       -0.01409   0.37918    0.81267   1.00
C5       0.03873    0.34760    0.83339   1.00
H2       0.00906    0.34723    0.84692   1.00
H2       0.09215    0.36632    0.83847   1.00
C5       0.00787    0.27587    0.82428   1.00
H2       0.03697    0.27596    0.81068   1.00
H2       -0.04622   0.25618    0.81985   1.00
H2       0.00942    0.24027    0.83559   1.00
C5       -0.12934   0.43932    0.79439   1.00
C5       -0.02709   0.52434    0.89787   1.00
H2       -0.09198   0.49381    0.79127   1.00
H2       -0.17828   0.43522    0.79944   1.00
H2       0.02372    0.53469    0.89227   1.00
H2       -0.05767   0.46870    0.90149   1.00
H2       -0.07551   0.49642    0.94194   1.00
H2       -0.10313   0.48242    0.75253   1.00
H2       -0.19186   0.44841    0.75967   1.00
C2       0.12310    0.58495    0.78482   1.00
C3       0.07779    0.61034    0.78694   1.00
O2       0.07057    0.64737    0.77149   1.00
C3       0.11863    0.53569    0.79889   1.00
H1       0.15372    0.51654    0.79800   1.00
C3a      0.02848    0.58503    0.80253   1.00
H1       -0.00833   0.60211    0.80324   1.00
C3b      0.06815    0.50904    0.81398   1.00
C4       0.02246    0.53356    0.81587   1.00
O_3      -0.10391   0.41187    0.80890   1.00
C5       0.10688    0.71759    0.77613   1.00
H2       0.08808    0.72860    0.79050   1.00
C5       0.09542    0.75481    0.75852   1.00
H2       0.16247    0.73621    0.77771   1.00
H2       0.04452    0.75039    0.76045   1.00
H2       0.09274    0.72685    0.74434   1.00
C5       0.15162    0.83031    0.75690   1.00
H2       0.15725    0.85610    0.77170   1.00
H2       0.13860    0.85702    0.74506   1.00
H2       0.20159    0.83545    0.75240   1.00
C5       -0.14180   0.39882    0.77488   1.00
H2       -0.18727   0.34732    0.77707   1.00
H2       -0.09743   0.39122    0.77228   1.00
C5       -0.15161   0.43513    0.75653   1.00
H2       -0.16757   0.40109    0.74306   1.00
C5       0.43188    0.41282    0.91671   1.00
H2       0.42065    0.35919    0.91601   1.00
H2       0.38174    0.41037    0.91564   1.00
C5       0.46682    0.44495    0.93715   1.00
H2       0.42839    0.43016    0.94948   1.00
H2       0.49589    0.50153    0.93584   1.00
O_3      0.53766    0.60419    0.82787   1.00
C4       0.49442    0.46442    0.83114   1.00
C3c      0.46379    0.44419    0.85032   1.00
H1       0.41789    0.44589    0.85360   1.00
C3d      0.55365    0.46088    0.82708   1.00
C3       0.49214    0.42248    0.86560   1.00
O2       0.45493    0.39565    0.88307   1.00
C3       0.58273    0.44053    0.84239   1.00
H1       0.62952    0.44094    0.83880   1.00
C2       0.55283    0.42061    0.86194   1.00
C5       0.60170    0.64166    0.81827   1.00
H2       0.59991    0.67127    0.80500   1.00
H2       0.62062    0.60734    0.81291   1.00
C5       0.65148    0.69135    0.83373   1.00
H2       0.65183    0.66193    0.84723   1.00
H2       0.63242    0.72576    0.83883   1.00
C5       0.72330    0.73267    0.82472   1.00
H2       0.72324    0.76181    0.81115   1.00
H2       0.74333    0.69856    0.82027   1.00
H2       0.75863    0.76974    0.83610   1.00
C5       0.56162    0.43241    0.79441   1.00
C5       0.47474    0.44747    0.89784   1.00
H2       0.50711    0.41505    0.79123   1.00
H2       0.56593    0.38764    0.79943   1.00
H2       0.46419    0.48783    0.89227   1.00
H2       0.53034    0.47273    0.90153   1.00
H2       0.50223    0.42651    0.94191   1.00
H2       0.51910    0.41596    0.75250   1.00
H2       0.55343    0.36149    0.75961   1.00
C2       0.41505    0.53816    0.78482   1.00
C3       0.38998    0.46749    0.78686   1.00
O2       0.35333    0.42339    0.77134   1.00
C3       0.46398    0.58289    0.79898   1.00
H1       0.48287    0.63710    0.79816   1.00
C3a      0.41528    0.44347    0.80245   1.00
H1       0.39846    0.38963    0.80309   1.00
C3b      0.49063    0.55906    0.81406   1.00
C4       0.46644    0.48889    0.81587   1.00
O_3      0.58862    0.48507    0.80899   1.00
C5       0.28303    0.38908    0.77588   1.00
H2       0.27196    0.35908    0.79022   1.00
C5       0.24625    0.34060    0.75820   1.00
H2       0.26411    0.42581    0.77749   1.00
H2       0.25093    0.29425    0.76009   1.00
H2       0.27435    0.36620    0.74406   1.00
C5       0.17066    0.32093    0.75650   1.00
H2       0.14470    0.30045    0.77126   1.00
H2       0.14429    0.28135    0.74461   1.00
H2       0.16530    0.36567    0.75204   1.00
C5       0.60235    0.46090    0.77496   1.00
H2       0.65394    0.46719    0.77719   1.00
H2       0.60969    0.51280    0.77241   1.00
C5       0.56648    0.41499    0.75654   1.00
H2       0.60071    0.43343    0.74312   1.00
C5       0.65165    0.39807    0.33793   1.00
H2       0.66755    0.36199    0.33222   1.00
H2       0.65570    0.39770    0.35471   1.00
C5       0.70031    0.47026    0.32948   1.00
H2       0.74810    0.49625    0.33857   1.00
H2       0.67493    0.50153    0.32986   1.00
O_3      0.30378    0.28031    0.34605   1.00
C4       0.36280    0.20085    0.33539   1.00
C3c      0.43241    0.24072    0.34007   1.00
H1       0.44809    0.25421    0.35567   1.00
C3d      0.34352    0.18301    0.31500   1.00
C3       0.48265    0.26455    0.32480   1.00
O2       0.54989    0.29612    0.33074   1.00
C3       0.39332    0.20774    0.29972   1.00
H1       0.37592    0.19475    0.28423   1.00
C2       0.46389    0.24874    0.30417   1.00
C5       0.25405    0.27432    0.33199   1.00
H2       0.20412    0.25885    0.33939   1.00
H2       0.24559    0.23615    0.31998   1.00
C5       0.27996    0.34370    0.32219   1.00
H2       0.33075    0.36004    0.31529   1.00
H2       0.28761    0.38126    0.33429   1.00
C5       0.22983    0.34116    0.30610   1.00
H2       0.17886    0.32442    0.31286   1.00
H2       0.22397    0.30543    0.29365   1.00
H2       0.24890    0.39265    0.29942   1.00
C5       0.25024    0.07744    0.31082   1.00
C5       0.57692    0.36747    0.33162   1.00
H2       0.25295    0.06207    0.32666   1.00
H2       0.27901    0.06099    0.30076   1.00
H2       0.54861    0.38007    0.34308   1.00
H2       0.57319    0.38927    0.31677   1.00
H2       0.71607    0.46789    0.31357   1.00
H2       0.13131    -0.04058   0.32705   1.00
H2       0.16561    -0.06028   0.30478   1.00
C2       0.20725    0.13331    0.38085   1.00
C3       0.23870    0.09439    0.37651   1.00
O2       0.20917    0.02748    0.38284   1.00
C3       0.23075    0.19604    0.37060   1.00
H1       0.20896    0.22787    0.37396   1.00
C3a      0.29100    0.11777    0.36183   1.00
H1       0.31185    0.08555    0.35785   1.00
C3b      0.28125    0.21809    0.35555   1.00
C4       0.31173    0.17885    0.35102   1.00
O_3      0.27549    0.14826    0.30942   1.00
C5       0.24311    0.02269    0.40017   1.00
H2       0.29817    0.04177    0.39697   1.00
C5       0.20827    -0.05279   0.40600   1.00
H2       0.23922    0.05254    0.41303   1.00
H2       0.22782    -0.07856   0.39588   1.00
H2       0.15292    -0.07562   0.40258   1.00
C5       0.21906    -0.06405   0.42845   1.00
H2       0.27446    -0.03639   0.43199   1.00
H2       0.19799    -0.11927   0.43168   1.00
H2       0.19213    -0.04608   0.43880   1.00
C5       0.17589    0.04143    0.30420   1.00
H2       0.17406    0.04729    0.28748   1.00
H2       0.15102    0.06814    0.31128   1.00
C5       0.13786    -0.03438   0.31027   1.00
H2       0.08613    -0.06052   0.30339   1.00
C5       0.59638    0.37012    0.33444   1.00
H2       0.57429    0.38034    0.32076   1.00
H2       0.57200    0.37995    0.34763   1.00
C5       0.57919    0.29483    0.33431   1.00
H2       0.52658    0.26070    0.34007   1.00
H2       0.61602    0.28871    0.34401   1.00
O_3      0.91484    0.62600    0.36716   1.00
C4       0.83857    0.63757    0.33527   1.00
C3c      0.77279    0.58068    0.33698   1.00
H1       0.74219    0.57519    0.35020   1.00
C3d      0.87723    0.64426    0.31779   1.00
C3       0.74586    0.52972    0.32193   1.00
O2       0.67832    0.48003    0.32345   1.00
C3       0.85107    0.59296    0.30296   1.00
H1       0.88353    0.59910    0.29017   1.00
C2       0.78494    0.53472    0.30456   1.00
C5       0.98211    0.64529    0.36133   1.00
H2       1.02089    0.68547    0.37143   1.00
H2       0.99256    0.66485    0.34544   1.00
C5       0.98963    0.58239    0.36271   1.00
H2       0.94964    0.54159    0.35306   1.00
H2       0.97972    0.56369    0.37867   1.00
C5       1.06089    0.59835    0.35591   1.00
H2       1.10110    0.63939    0.36539   1.00
H2       1.06993    0.61477    0.33976   1.00
H2       1.06592    0.55217    0.35745   1.00
C5       0.94541    0.75418    0.30743   1.00
C5       0.67260    0.42277    0.33384   1.00
H2       0.91855    0.77330    0.31721   1.00
H2       0.92147    0.74268    0.29207   1.00
H2       0.69309    0.43739    0.34956   1.00
H2       0.70151    0.40088    0.32622   1.00
H2       0.58068    0.27719    0.31858   1.00
H2       1.01224    0.89906    0.31509   1.00
H2       0.99591    0.87825    0.28829   1.00
C2       0.92620    0.79026    0.38156   1.00
C3       0.88512    0.79525    0.36632   1.00
O2       0.88638    0.85605    0.36305   1.00
C3       0.93458    0.73238    0.38165   1.00
H1       0.96426    0.72617    0.39341   1.00
C3a      0.85515    0.74392    0.35138   1.00
H1       0.82707    0.75042    0.33916   1.00
C3b      0.90651    0.68253    0.36641   1.00
C4       0.86656    0.68809    0.35109   1.00
O_3      0.94411    0.69656    0.31609   1.00
C5       0.82830    0.85374    0.37172   1.00
H2       0.78032    0.81164    0.36505   1.00
C5       0.83290    0.92221    0.36717   1.00
H2       0.82710    0.84622    0.38846   1.00
H2       0.81566    0.92113    0.35129   1.00
H2       0.88781    0.96217    0.36772   1.00
C5       0.79101    0.93926    0.38205   1.00
H2       0.73752    0.89637    0.38249   1.00
H2       0.79095    0.98637    0.37725   1.00
H2       0.81317    0.94909    0.39768   1.00
C5       1.01979    0.80975    0.30550   1.00
H2       1.04359    0.79545    0.29308   1.00
H2       1.04659    0.81086    0.31979   1.00
C5       1.02738    0.88022    0.30152   1.00
H2       1.08147    0.91798    0.29810   1.00
C5       0.76166    0.39649    0.33572   1.00
H2       0.79529    0.42115    0.32245   1.00
H2       0.79387    0.42034    0.34933   1.00
C5       0.70143    0.41052    0.33524   1.00
H2       0.71710    0.46201    0.34146   1.00
H2       0.65811    0.37145    0.34437   1.00
O_3      0.70902    0.07924    0.36598   1.00
C4       0.79904    0.16148    0.33528   1.00
C3c      0.80476    0.22582    0.33746   1.00
H1       0.82736    0.25530    0.35105   1.00
C3d      0.77032    0.12431    0.31732   1.00
C3       0.78071    0.25269    0.32240   1.00
O2       0.79553    0.31921    0.32446   1.00
C3       0.74515    0.15035    0.30247   1.00
H1       0.72135    0.11895    0.28928   1.00
C2       0.74984    0.21501    0.30453   1.00
C5       0.66390    0.01207    0.35937   1.00
H2       0.66598    -0.02685   0.36923   1.00
H2       0.67565    0.00417    0.34350   1.00
C5       0.59210    0.00125    0.36014   1.00
H2       0.59051    0.04133    0.35074   1.00
H2       0.58069    0.00863    0.37608   1.00
C5       0.53980    -0.07005   0.35248   1.00
H2       0.54144    -0.11031   0.36171   1.00
H2       0.54973    -0.07663   0.33634   1.00
H2       0.48749    -0.07755   0.35358   1.00
C5       0.81754    0.06102    0.30688   1.00
C5       0.74130    0.32114    0.33447   1.00
H2       0.86207    0.08824    0.31718   1.00
H2       0.83097    0.08674    0.29178   1.00
H2       0.73437    0.29905    0.35001   1.00
H2       0.69166    0.29144    0.32628   1.00
H2       0.68385    0.41000    0.31936   1.00
H2       0.89963    -0.00134   0.31474   1.00
H2       0.89752    0.01750    0.28804   1.00
C2       0.86416    0.07371    0.38151   1.00
C3       0.91115    0.11772    0.36689   1.00
O2       0.97249    0.11969    0.36409   1.00
C3       0.79680    0.06240    0.38102   1.00
H1       0.76011    0.03040    0.39231   1.00
C3a      0.88967    0.14767    0.35198   1.00
H1       0.92516    0.17811    0.34021   1.00
C3b      0.77503    0.09051    0.36579   1.00
C4       0.82151    0.13341    0.35108   1.00
O_3      0.75884    0.05862    0.31510   1.00
C5       1.02567    0.17793    0.37355   1.00
H2       1.03018    0.22576    0.36722   1.00
C5       1.09174    0.17700    0.36947   1.00
H2       1.01712    0.17686    0.39023   1.00
H2       1.10936    0.19642    0.35384   1.00
H2       1.07904    0.12270    0.36957   1.00
C5       1.14820    0.21889    0.38507   1.00
H2       1.15641    0.27149    0.38592   1.00
H2       1.19702    0.22174    0.38064   1.00
H2       1.13477    0.19488    0.40044   1.00
C5       0.80212    -0.01216   0.30436   1.00
H2       0.76581    -0.03571   0.29150   1.00
H2       0.77541    -0.04116   0.31827   1.00
C5       0.86726    -0.01612   0.30082   1.00
H2       0.85358    -0.06922   0.29695   1.00
C5       0.84271    0.65772    0.74863   1.00
H2       0.86429    0.62319    0.74831   1.00
H2       0.88718    0.71031    0.74907   1.00
C5       0.80011    0.64708    0.72922   1.00
H2       0.83366    0.67578    0.71622   1.00
H2       0.76287    0.66478    0.73180   1.00
O_3      0.73171    0.71166    0.84160   1.00
C4       0.79883    0.63678    0.83551   1.00
C3c      0.82501    0.65204    0.81570   1.00
H1       0.86378    0.70352    0.81191   1.00
C3d      0.74904    0.56917    0.84020   1.00
C3       0.80114    0.60175    0.80044   1.00
O2       0.83492    0.61848    0.78214   1.00
C3       0.72423    0.51928    0.82495   1.00
H1       0.68431    0.46868    0.82908   1.00
C2       0.74961    0.53399    0.80478   1.00
C5       0.67025    0.67474    0.85255   1.00
H2       0.66877    0.70288    0.86623   1.00
H2       0.66258    0.62429    0.85754   1.00
C5       0.61219    0.66338    0.83855   1.00
H2       0.61483    0.63696    0.82461   1.00
H2       0.62004    0.71406    0.83381   1.00
C5       0.54298    0.62130    0.84907   1.00
H2       0.54017    0.64716    0.86307   1.00
H2       0.53406    0.56981    0.85317   1.00
H2       0.50128    0.61481    0.83876   1.00
C5       0.75658    0.53650    0.87237   1.00
C5       0.80267    0.64169    0.76852   1.00
H2       0.80863    0.58091    0.87461   1.00
H2       0.76126    0.49260    0.86669   1.00
H2       0.80453    0.68857    0.77462   1.00
H2       0.74783    0.60296    0.76592   1.00
H2       0.77206    0.59224    0.72458   1.00
H2       0.80784    0.56965    0.91336   1.00
H2       0.78794    0.48447    0.90578   1.00
C2       0.86376    0.78897    0.88194   1.00
C3       0.90039    0.75460    0.87845   1.00
O2       0.94582    0.75652    0.89274   1.00
C3       0.80785    0.77424    0.86916   1.00
H1       0.77985    0.80095    0.87110   1.00
C3a      0.87959    0.70562    0.86281   1.00
H1       0.90575    0.67697    0.86108   1.00
C3b      0.78596    0.72396    0.85405   1.00
C4       0.82178    0.68908    0.85079   1.00
O_3      0.71794    0.55260    0.85904   1.00
C5       1.01332    0.80316    0.88681   1.00
H2       1.02582    0.78868    0.87190   1.00
C5       1.06036    0.80146    0.90319   1.00
H2       1.02143    0.85581    0.88560   1.00
H2       1.06585    0.75585    0.90060   1.00
H2       1.03394    0.79351    0.91804   1.00
C5       1.13089    0.86682    0.90367   1.00
H2       1.15418    0.87688    0.88831   1.00
H2       1.16546    0.86137    0.91455   1.00
H2       1.12699    0.91182    0.90879   1.00
C5       0.71988    0.51744    0.89272   1.00
H2       0.67302    0.46658    0.89120   1.00
H2       0.70289    0.55478    0.89620   1.00
C5       0.76576    0.51701    0.90988   1.00
H2       0.73537    0.49611    0.92397   1.00
C5       0.59146    0.43382    0.82405   1.00
H2       0.63019    0.41743    0.82361   1.00
H2       0.59142    0.45050    0.83989   1.00
C5       0.61220    0.49389    0.80917   1.00
H2       0.65091    0.54290    0.81616   1.00
H2       0.56665    0.49767    0.80489   1.00
O_3      0.25086    0.18196    0.83385   1.00
C4       0.36317    0.16085    0.83547   1.00
C3c      0.42099    0.22589    0.83744   1.00
H1       0.42742    0.25577    0.85090   1.00
C3d      0.35625    0.12236    0.81793   1.00
C3       0.47072    0.25379    0.82205   1.00
O2       0.52978    0.31396    0.82610   1.00
C3       0.40502    0.15051    0.80242   1.00
H1       0.39632    0.12006    0.78894   1.00
C2       0.46343    0.21651    0.80406   1.00
C5       0.20094    0.13875    0.81975   1.00
H2       0.14950    0.10884    0.82680   1.00
H2       0.21462    0.10218    0.81284   1.00
C5       0.19741    0.18345    0.80316   1.00
H2       0.24926    0.21476    0.79650   1.00
H2       0.18311    0.21930    0.81020   1.00
C5       0.14585    0.14017    0.78673   1.00
H2       0.09405    0.10842    0.79330   1.00
H2       0.16136    0.10603    0.77921   1.00
H2       0.14287    0.17378    0.77497   1.00
C5       0.30533    0.00781    0.82352   1.00
C5       0.52340    0.36971    0.81928   1.00
H2       0.31184    0.01453    0.84024   1.00
H2       0.34988    0.00577    0.81711   1.00
H2       0.48098    0.37107    0.82748   1.00
H2       0.51209    0.36690    0.80268   1.00
H2       0.63618    0.48742    0.79515   1.00
H2       0.22548    -0.11013   0.84877   1.00
H2       0.28164    -0.12158   0.83153   1.00
C2       0.20643    0.07640    0.88066   1.00
C3       0.26409    0.06824    0.88237   1.00
O2       0.26320    0.01989    0.89530   1.00
C3       0.20372    0.11565    0.86437   1.00
H1       0.16113    0.12433    0.86293   1.00
C3a      0.31626    0.09755    0.86766   1.00
H1       0.35817    0.08757    0.86853   1.00
C3b      0.25463    0.14288    0.84941   1.00
C4       0.31141    0.13384    0.85095   1.00
O_3      0.29784    0.06029    0.81457   1.00
C5       0.29962    0.05115    0.91320   1.00
H2       0.35386    0.08959    0.90981   1.00
C5       0.29724    -0.00539   0.92652   1.00
H2       0.27587    0.07694    0.92148   1.00
H2       0.33607    -0.01782   0.92084   1.00
H2       0.24655    -0.05187   0.92417   1.00
C5       0.30896    0.01388    0.94918   1.00
H2       0.35716    0.06320    0.95106   1.00
H2       0.31258    -0.02593   0.95811   1.00
H2       0.26565    0.01804    0.95575   1.00
C5       0.24061    -0.05938   0.81912   1.00
H2       0.24033    -0.07172   0.80276   1.00
H2       0.19606    -0.05203   0.82167   1.00
C5       0.23466    -0.11767   0.83259   1.00
H2       0.19086    -0.16702   0.82754   1.00
C5       0.57629    0.18579    0.82901   1.00
H2       0.59796    0.24161    0.82716   1.00
H2       0.56358    0.17509    0.84536   1.00
C5       0.51114    0.14734    0.81591   1.00
H2       0.46642    0.14473    0.82380   1.00
H2       0.50046    0.09461    0.81275   1.00
O_3      0.80320    0.06405    0.83696   1.00
C4       0.83922    0.20230    0.83545   1.00
C3c      0.77840    0.20340    0.83850   1.00
H1       0.75190    0.18654    0.85283   1.00
C3d      0.87348    0.22540    0.81678   1.00
C3       0.75035    0.22517    0.82315   1.00
O2       0.69543    0.23272    0.82807   1.00
C3       0.84500    0.24588    0.80132   1.00
H1       0.87184    0.26088    0.78701   1.00
C2       0.78315    0.24660    0.80408   1.00
C5       0.83835    0.04733    0.82245   1.00
H2       0.86578    0.02309    0.82948   1.00
H2       0.87627    0.09354    0.81399   1.00
C5       0.78594    -0.00291   0.80762   1.00
H2       0.75721    0.02057    0.80102   1.00
H2       0.74873    -0.04909   0.81620   1.00
C5       0.82025    -0.02202   0.79083   1.00
H2       0.84943    -0.04507   0.79733   1.00
H2       0.85565    0.02369    0.78181   1.00
H2       0.78103    -0.05991   0.78040   1.00
C5       0.98941    0.27981    0.81933   1.00
C5       0.63405    0.17220    0.82341   1.00
H2       0.98821    0.28551    0.83605   1.00
H2       0.99489    0.32662    0.81193   1.00
H2       0.63008    0.12880    0.83252   1.00
H2       0.63061    0.15786    0.80704   1.00
H2       0.51653    0.17432    0.80123   1.00
H2       1.11143    0.31289    0.84191   1.00
H2       1.12489    0.37736    0.82318   1.00
C2       0.92300    0.12948    0.88069   1.00
C3       0.93895    0.19825    0.88088   1.00
O2       0.99354    0.24610    0.89203   1.00
C3       0.87651    0.08526    0.86594   1.00
H1       0.86189    0.03195    0.86573   1.00
C3a      0.90991    0.22148    0.86619   1.00
H1       0.92563    0.27510    0.86582   1.00
C3b      0.84942    0.10901    0.85096   1.00
C4       0.86614    0.17761    0.85097   1.00
O_3      0.93068    0.22051    0.81246   1.00
C5       0.97050    0.26088    0.91018   1.00
H2       0.93556    0.28125    0.90703   1.00
C5       1.03363    0.31487    0.92145   1.00
H2       0.94311    0.21446    0.91983   1.00
H2       1.04958    0.36554    0.91455   1.00
H2       1.07570    0.30396    0.91853   1.00
C5       1.02169    0.31622    0.94444   1.00
H2       0.97621    0.32176    0.94705   1.00
H2       1.06664    0.35970    0.95181   1.00
H2       1.01417    0.26879    0.95203   1.00
C5       1.05092    0.27271    0.81392   1.00
H2       1.05886    0.27887    0.79721   1.00
H2       1.03868    0.21979    0.81766   1.00
C5       1.11552    0.32463    0.82535   1.00
H2       1.16058    0.32278    0.81950   1.00
C5       -0.03547   0.36621    0.41258   1.00
H2       -0.04556   0.40429    0.42001   1.00
H2       0.02051    0.38730    0.41359   1.00
C5       -0.07377   0.29759    0.42410   1.00
H2       -0.04473   0.29811    0.43779   1.00
H2       -0.08119   0.25500    0.41400   1.00
O_3      -0.01569   0.37073    0.30719   1.00
C4       -0.02950   0.46580    0.33126   1.00
C3c      -0.01591   0.45465    0.35124   1.00
H1       0.03436    0.46391    0.35519   1.00
C3d      -0.09506   0.45436    0.32650   1.00
C3       -0.06679   0.43059    0.36632   1.00
O2       -0.04757   0.42885    0.38602   1.00
C3       -0.14620   0.42916    0.34138   1.00
H1       -0.19635   0.41884    0.33684   1.00
C2       -0.13352   0.41689    0.36161   1.00
C5       -0.06545   0.34238    0.29176   1.00
H2       -0.04229   0.34862    0.27642   1.00
H2       -0.09815   0.36635    0.29156   1.00
C5       -0.10971   0.26667    0.29612   1.00
H2       -0.13132   0.26040    0.31167   1.00
H2       -0.07665   0.24316    0.29609   1.00
C5       -0.16693   0.23217    0.28039   1.00
H2       -0.14571   0.23863    0.26481   1.00
H2       -0.20136   0.25399    0.28090   1.00
H2       -0.19781   0.17660    0.28357   1.00
C5       -0.09570   0.52752    0.30284   1.00
C5       -0.05678   0.36366    0.39042   1.00
H2       -0.03991   0.56307    0.30434   1.00
H2       -0.12304   0.54446    0.31331   1.00
H2       -0.02398   0.35261    0.38029   1.00
H2       -0.11071   0.32196    0.38818   1.00
H2       -0.12454   0.28788    0.42963   1.00
H2       -0.02856   0.62766    0.27125   1.00
H2       -0.09516   0.63621    0.28394   1.00
C2       0.12079    0.53152    0.28423   1.00
C3       0.11717    0.58004    0.29683   1.00
O2       0.14912    0.64779    0.29121   1.00
C3       0.07616    0.46150    0.28823   1.00
H1       0.07885    0.42308    0.27920   1.00
C3a      0.06852    0.55792    0.31259   1.00
H1       0.06377    0.59570    0.32134   1.00
C3b      0.02639    0.43970    0.30349   1.00
C4       0.02215    0.48800    0.31580   1.00
O_3      -0.11252   0.45960    0.30674   1.00
C5       0.21046    0.68546    0.30213   1.00
H2       0.20091    0.68209    0.31882   1.00
C5       0.24203    0.75981    0.29533   1.00
H2       0.24657    0.66674    0.29883   1.00
H2       0.21556    0.78319    0.30340   1.00
H2       0.23041    0.75954    0.27890   1.00
C5       0.31958    0.80157    0.29907   1.00
H2       0.33061    0.79684    0.31522   1.00
H2       0.33964    0.85643    0.29554   1.00
H2       0.34774    0.78403    0.28909   1.00
C5       -0.11691   0.53054    0.28112   1.00
H2       -0.17360   0.50449    0.28050   1.00
H2       -0.10115   0.50069    0.27134   1.00
C5       -0.08479   0.60431    0.27331   1.00
H2       -0.10684   0.60498    0.25831   1.00
C5       0.39721    1.03903    0.41165   1.00
H2       0.44434    1.04779    0.41947   1.00
H2       0.36103    0.98330    0.41261   1.00
C5       0.36776    1.07897    0.42268   1.00
H2       0.33774    1.05047    0.43624   1.00
H2       0.33418    1.08756    0.41222   1.00
O_3      0.38964    1.01879    0.30625   1.00
C4       0.49530    1.02948    0.33127   1.00
C3c      0.46900    1.01659    0.35108   1.00
H1       0.42676    0.96687    0.35489   1.00
C3d      0.55098    1.09430    0.32669   1.00
C3       0.49586    1.06750    0.36615   1.00
O2       0.47313    1.04877    0.38573   1.00
C3       0.57699    1.14550    0.34155   1.00
H1       0.61812    1.19513    0.33714   1.00
C2       0.55052    1.13355    0.36160   1.00
C5       0.41347    1.06854    0.29078   1.00
H2       0.39725    1.04546    0.27541   1.00
H2       0.47026    1.09994    0.29095   1.00
C5       0.38363    1.11452    0.29462   1.00
H2       0.39823    1.13608    0.31020   1.00
H2       0.32695    1.08275    0.29422   1.00
C5       0.40901    1.17181    0.27882   1.00
H2       0.39502    1.15064    0.26322   1.00
H2       0.46539    1.20498    0.27968   1.00
H2       0.38549    1.20398    0.28161   1.00
C5       0.62537    1.09245    0.30372   1.00
C5       0.41804    1.05994    0.38956   1.00
H2       0.60357    1.03645    0.30531   1.00
H2       0.66899    1.11886    0.31448   1.00
H2       0.37465    1.02797    0.37919   1.00
H2       0.43197    1.11431    0.38717   1.00
H2       0.40933    1.12925    0.42835   1.00
H2       0.65808    1.02301    0.27279   1.00
H2       0.73315    1.08833    0.28586   1.00
C2       0.41091    0.87926    0.28422   1.00
C3       0.46133    0.88135    0.29728   1.00
O2       0.49592    0.84772    0.29216   1.00
C3       0.38706    0.92542    0.28775   1.00
H1       0.34725    0.92395    0.27835   1.00
C3a      0.48777    0.93000    0.31304   1.00
H1       0.52908    0.93352    0.32217   1.00
C3b      0.41500    0.97516    0.30302   1.00
C4       0.46586    0.97787    0.31579   1.00
O_3      0.57537    1.11118    0.30706   1.00
C5       0.46984    0.78624    0.30316   1.00
H2       0.47495    0.79585    0.31986   1.00
C5       0.51141    0.75277    0.29693   1.00
H2       0.41502    0.75130    0.29953   1.00
H2       0.56066    0.77811    0.30532   1.00
H2       0.52420    0.76411    0.28055   1.00
C5       0.47343    0.67518    0.30072   1.00
H2       0.45635    0.66458    0.31677   1.00
H2       0.50728    0.65367    0.29761   1.00
H2       0.42835    0.64798    0.29045   1.00
C5       0.65154    1.11308    0.28214   1.00
H2       0.68354    1.16967    0.28152   1.00
H2       0.60694    1.09848    0.27201   1.00
C5       0.69206    1.07908    0.27488   1.00
H2       0.71626    1.10065    0.25999   1.00
C5       0.64148    0.60260    0.41169   1.00
H2       0.60312    0.55542    0.41950   1.00
H2       0.62186    0.63872    0.41266   1.00
C5       0.71084    0.63209    0.42274   1.00
H2       0.71227    0.66205    0.43631   1.00
H2       0.75303    0.66573    0.41230   1.00
O_3      0.62917    0.61050    0.30629   1.00
C4       0.53419    0.50470    0.33127   1.00
C3c      0.54750    0.53093    0.35109   1.00
H1       0.53995    0.57312    0.35491   1.00
C3d      0.54343    0.44909    0.32668   1.00
C3       0.57155    0.50407    0.36615   1.00
O2       0.57545    0.52673    0.38575   1.00
C3       0.56862    0.42308    0.34154   1.00
H1       0.57720    0.38200    0.33712   1.00
C2       0.58304    0.44949    0.36160   1.00
C5       0.65520    0.58678    0.29082   1.00
H2       0.64837    0.60303    0.27545   1.00
H2       0.62987    0.52999    0.29098   1.00
C5       0.73101    0.61669    0.29468   1.00
H2       0.73794    0.60206    0.31026   1.00
H2       0.75587    0.67337    0.29430   1.00
C5       0.76304    0.59143    0.27889   1.00
H2       0.75589    0.60545    0.26328   1.00
H2       0.73989    0.53505    0.27973   1.00
H2       0.81872    0.61500    0.28169   1.00
C5       0.46732    0.37472    0.30368   1.00
C5       0.64167    0.58186    0.38960   1.00
H2       0.43306    0.39645    0.30527   1.00
H2       0.45012    0.33107    0.31442   1.00
H2       0.65307    0.62527    0.37924   1.00
H2       0.68216    0.56800    0.38721   1.00
H2       0.71959    0.59054    0.42840   1.00
H2       0.36526    0.34199    0.27273   1.00
H2       0.35557    0.26692    0.28577   1.00
C2       0.46837    0.58910    0.28422   1.00
C3       0.42002    0.53860    0.29726   1.00
O2       0.35182    0.50395    0.29212   1.00
C3       0.53837    0.61302    0.28777   1.00
H1       0.57672    0.65289    0.27839   1.00
C3a      0.44223    0.51216    0.31302   1.00
H1       0.40445    0.47080    0.32213   1.00
C3b      0.56018    0.58508    0.30304   1.00
C4       0.51202    0.53414    0.31579   1.00
O_3      0.53602    0.42477    0.30704   1.00
C5       0.31632    0.52993    0.30312   1.00
H2       0.32078    0.52478    0.31981   1.00
C5       0.24131    0.48830    0.29686   1.00
H2       0.33616    0.58476    0.29950   1.00
H2       0.21742    0.43902    0.30524   1.00
H2       0.23994    0.47558    0.28048   1.00
C5       0.20160    0.52619    0.30064   1.00
H2       0.20801    0.54321    0.31670   1.00
H2       0.14627    0.49230    0.29753   1.00
H2       0.21947    0.57129    0.29039   1.00
C5       0.46190    0.34863    0.28209   1.00
H2       0.48655    0.31669    0.28147   1.00
H2       0.49188    0.39328    0.27198   1.00
C5       0.38740    0.30806    0.27481   1.00
H2       0.38487    0.28392    0.25992   1.00
C5       0.32846    0.38222    0.24237   1.00
H2       0.37418    0.43245    0.23916   1.00
H2       0.34334    0.34347    0.23881   1.00
C5       0.30916    0.37842    0.26504   1.00
H2       0.34137    0.36505    0.27458   1.00
H2       0.25459    0.33929    0.26728   1.00
O_3      0.07509    0.24326    0.16856   1.00
C4       0.20209    0.36343    0.16444   1.00
C3c      0.24195    0.36359    0.18078   1.00
H1       0.25577    0.32437    0.18180   1.00
C3d      0.18547    0.41555    0.16325   1.00
C3       0.26374    0.41338    0.19615   1.00
O2       0.30937    0.41519    0.21027   1.00
C3       0.20599    0.46444    0.17872   1.00
H1       0.18998    0.50199    0.17752   1.00
C2       0.24569    0.46491    0.19547   1.00
C5       0.01975    0.25293    0.16375   1.00
H2       -0.01409   0.21655    0.15192   1.00
H2       0.03796    0.30583    0.15820   1.00
C5       -0.02169   0.24107    0.18298   1.00
H2       0.01258    0.27610    0.19498   1.00
H2       -0.04014   0.18792    0.18828   1.00
C5       -0.08180   0.25298    0.17926   1.00
H2       -0.11598   0.21849    0.16720   1.00
H2       -0.06334   0.30670    0.17465   1.00
H2       -0.11235   0.24262    0.19337   1.00
C5       0.18039    0.44879    0.13094   1.00
C5       0.27388    0.37617    0.22745   1.00
H2       0.20680    0.42269    0.12458   1.00
H2       0.21922    0.50285    0.13434   1.00
H2       0.23987    0.32179    0.22305   1.00
H2       0.24120    0.39448    0.23465   1.00
H2       0.31806    0.42879    0.27068   1.00
H2       0.17216    0.42568    0.08769   1.00
H2       0.21222    0.51557    0.09421   1.00
C2       0.12786    0.20907    0.11850   1.00
C3       0.19327    0.26725    0.11663   1.00
O2       0.22656    0.28370    0.09819   1.00
C3       0.08961    0.20183    0.13623   1.00
H1       0.04013    0.15704    0.13837   1.00
C3a      0.21799    0.31715    0.13206   1.00
H1       0.26647    0.36322    0.12987   1.00
C3b      0.11342    0.25257    0.15124   1.00
C4       0.17799    0.31087    0.14922   1.00
O_3      0.14210    0.41474    0.14832   1.00
C5       0.27707    0.26459    0.09792   1.00
H2       0.31560    0.29098    0.11015   1.00
C5       0.31222    0.28547    0.07722   1.00
H2       0.25396    0.20844    0.09992   1.00
H2       0.34975    0.34111    0.07755   1.00
H2       0.27272    0.27803    0.06584   1.00
C5       0.34746    0.24479    0.07119   1.00
H2       0.38274    0.24840    0.08346   1.00
H2       0.37716    0.26524    0.05692   1.00
H2       0.30937    0.18999    0.06827   1.00
C5       0.13088    0.44774    0.11513   1.00
H2       0.11343    0.48360    0.12002   1.00
H2       0.08507    0.39574    0.11495   1.00
C5       0.16314    0.46640    0.09386   1.00
H2       0.12828    0.47208    0.08320   1.00
C5       0.38605    0.57971    0.16979   1.00
H2       0.39920    0.56489    0.18444   1.00
H2       0.40020    0.55454    0.15782   1.00
C5       0.30857    0.55377    0.16914   1.00
H2       0.27955    0.49893    0.16480   1.00
H2       0.29767    0.58394    0.15797   1.00
O_3      0.61670    0.89771    0.12989   1.00
C4       0.63761    0.83868    0.16474   1.00
C3c      0.58604    0.76988    0.16449   1.00
H1       0.58478    0.73690    0.15243   1.00
C3d      0.63891    0.88055    0.18074   1.00
C3       0.53498    0.74278    0.17951   1.00
O2       0.49126    0.67338    0.17966   1.00
C3       0.58739    0.85405    0.19550   1.00
H1       0.58911    0.88870    0.20708   1.00
C2       0.53443    0.78477    0.19535   1.00
C5       0.62809    0.96409    0.13345   1.00
H2       0.66598    1.00216    0.12269   1.00
H2       0.64678    0.98120    0.14921   1.00
C5       0.56056    0.96214    0.13058   1.00
H2       0.52219    0.92273    0.14093   1.00
H2       0.54272    0.94562    0.11474   1.00
C5       0.56786    1.03204    0.13489   1.00
H2       0.60645    1.07174    0.12470   1.00
H2       0.58338    1.04751    0.15091   1.00
H2       0.51836    1.03000    0.13228   1.00
C5       0.74595    0.96134    0.19052   1.00
C5       0.43181    0.65723    0.16846   1.00
H2       0.77011    0.93618    0.18220   1.00
H2       0.73626    0.94241    0.20648   1.00
H2       0.44526    0.67330    0.15233   1.00
H2       0.40453    0.68326    0.17449   1.00
H2       0.28904    0.55757    0.18438   1.00
H2       0.89093    1.04010    0.18310   1.00
H2       0.86992    1.03041    0.20996   1.00
C2       0.78975    0.92590    0.11829   1.00
C3       0.79977    0.89334    0.13512   1.00
O2       0.86385    0.90368    0.13948   1.00
C3       0.72737    0.92580    0.11677   1.00
H1       0.71740    0.94874    0.10381   1.00
C3a      0.74872    0.86337    0.15013   1.00
H1       0.75877    0.84208    0.16349   1.00
C3b      0.67762    0.89787    0.13204   1.00
C4       0.68810    0.86646    0.14892   1.00
O_3      0.68546    0.94975    0.18086   1.00
C5       0.86937    0.84720    0.13306   1.00
H2       0.83078    0.79934    0.14074   1.00
C5       0.94107    0.86204    0.13873   1.00
H2       0.86226    0.83997    0.11634   1.00
H2       0.94152    0.85084    0.15515   1.00
H2       0.97624    0.91786    0.13683   1.00
C5       0.96523    0.82118    0.12589   1.00
H2       0.92683    0.76597    0.12669   1.00
H2       1.01493    0.82892    0.13156   1.00
H2       0.97339    0.83817    0.10969   1.00
C5       0.79498    1.03797    0.19062   1.00
H2       0.77621    1.06177    0.20177   1.00
H2       0.79325    1.05846    0.17541   1.00
C5       0.86844    1.05565    0.19564   1.00
H2       0.90121    1.11163    0.19767   1.00
C5       0.39619    0.76117    0.16423   1.00
H2       0.42096    0.79486    0.17749   1.00
H2       0.42002    0.79330    0.15061   1.00
C5       0.41010    0.70087    0.16472   1.00
H2       0.46154    0.71642    0.15849   1.00
H2       0.37094    0.65753    0.15562   1.00
O_3      0.07901    0.70894    0.13407   1.00
C4       0.16148    0.79905    0.16472   1.00
C3c      0.22576    0.80463    0.16252   1.00
H1       0.25520    0.82713    0.14892   1.00
C3d      0.12437    0.77046    0.18269   1.00
C3       0.25263    0.78058    0.17759   1.00
O2       0.31910    0.79528    0.17550   1.00
C3       0.15041    0.74528    0.19755   1.00
H1       0.11906    0.72158    0.21075   1.00
C2       0.21501    0.74984    0.19547   1.00
C5       0.01184    0.66394    0.14071   1.00
H2       -0.02708   0.66604    0.13086   1.00
H2       0.00404    0.67579    0.15658   1.00
C5       0.00089    0.59209    0.13996   1.00
H2       0.04097    0.59047    0.14935   1.00
H2       0.00818    0.58058    0.12402   1.00
C5       -0.07040   0.53991    0.14766   1.00
H2       -0.11067   0.54158    0.13844   1.00
H2       -0.07688   0.54994    0.16380   1.00
H2       -0.07800   0.48756    0.14658   1.00
C5       0.06128    0.81789    0.19314   1.00
C5       0.32088    0.74094    0.16550   1.00
H2       0.08851    0.86236    0.18282   1.00
H2       0.08708    0.83135    0.20823   1.00
H2       0.29872    0.73397    0.14998   1.00
H2       0.29115    0.69135    0.17372   1.00
H2       0.40961    0.68335    0.18061   1.00
H2       -0.00089   0.90014    0.18527   1.00
H2       0.01805    0.89812    0.21197   1.00
C2       0.07371    0.86417    0.11850   1.00
C3       0.11783    0.91118    0.13309   1.00
O2       0.11993    0.97259    0.13587   1.00
C3       0.06228    0.79677    0.11901   1.00
H1       0.03019    0.76004    0.10774   1.00
C3a      0.14778    0.88970    0.14799   1.00
H1       0.17831    0.92523    0.15974   1.00
C3b      0.09039    0.77500    0.13424   1.00
C4       0.13340    0.82150    0.14892   1.00
O_3      0.05873    0.75910    0.18494   1.00
C5       0.17817    1.02566    0.12638   1.00
H2       0.22600    1.03012    0.13269   1.00
C5       0.17739    1.09183    0.13043   1.00
H2       0.17701    1.01703    0.10970   1.00
H2       0.19690    1.10950    0.14606   1.00
H2       0.12312    1.07922    0.13035   1.00
C5       0.21927    1.14818    0.11481   1.00
H2       0.27183    1.15629    0.11394   1.00
H2       0.22224    1.19706    0.11922   1.00
H2       0.19519    1.13470    0.09944   1.00
C5       -0.01185   0.80260    0.19569   1.00
H2       -0.03538   0.76637    0.20856   1.00
H2       -0.04094   0.77586    0.18179   1.00
C5       -0.01566   0.86784    0.19920   1.00
H2       -0.06872   0.85426    0.20309   1.00
C5       1.01697    0.57928    0.58280   1.00
H2       1.05835    0.63342    0.58318   1.00
H2       0.96849    0.58029    0.58366   1.00
C5       1.02075    0.54615    0.56268   1.00
H2       0.99625    0.55900    0.55012   1.00
H2       0.99457    0.48973    0.56439   1.00
O_3      0.93632    0.39534    0.67301   1.00
C4       1.02997    0.53559    0.66886   1.00
C3c      1.01873    0.55366    0.64946   1.00
H1       0.97045    0.55025    0.64601   1.00
C3d      1.09360    0.54134    0.67313   1.00
C3       1.06881    0.57538    0.63419   1.00
O2       1.05738    0.60007    0.61643   1.00
C3       1.14309    0.56169    0.65784   1.00
H1       1.19019    0.56301    0.66162   1.00
C2       1.13228    0.57944    0.63808   1.00
C5       0.96448    0.36005    0.68305   1.00
H2       0.93358    0.33099    0.69645   1.00
H2       1.01748    0.39589    0.68831   1.00
C5       0.96605    0.30995    0.66804   1.00
H2       0.99531    0.33876    0.65440   1.00
H2       0.91283    0.27404    0.66304   1.00
C5       0.99833    0.27096    0.67755   1.00
H2       0.96964    0.24245    0.69126   1.00
H2       1.05224    0.30655    0.68190   1.00
H2       0.99766    0.23353    0.66650   1.00
C5       1.12983    0.57306    0.70568   1.00
C5       1.02644    0.54693    0.60202   1.00
H2       1.09159    0.58923    0.70856   1.00
H2       1.17824    0.61823    0.70046   1.00
H2       0.97604    0.50609    0.60775   1.00
H2       1.05801    0.52273    0.59867   1.00
H2       1.07481    0.56558    0.55796   1.00
H2       1.10300    0.59173    0.74732   1.00
H2       1.19144    0.64752    0.74008   1.00
C2       0.87699    0.46193    0.71521   1.00
C3       0.92110    0.53272    0.71272   1.00
O2       0.92734    0.57756    0.72786   1.00
C3       0.88259    0.41694    0.70148   1.00
H1       0.84842    0.36258    0.70265   1.00
C3a      0.97036    0.55665    0.69711   1.00
H1       1.00627    0.61072    0.69613   1.00
C3b      0.93305    0.44077    0.68639   1.00
C4       0.97754    0.51109    0.68413   1.00
O_3      1.10536    0.51931    0.69148   1.00
C5       0.88974    0.60983    0.72287   1.00
H2       0.90797    0.63881    0.70834   1.00
C5       0.90017    0.65929    0.74015   1.00
H2       0.83438    0.57185    0.72137   1.00
H2       0.95054    0.70632    0.73804   1.00
H2       0.90356    0.63529    0.75452   1.00
C5       0.84281    0.67704    0.74145   1.00
H2       0.83657    0.69586    0.72648   1.00
H2       0.85504    0.71733    0.75303   1.00
H2       0.79336    0.63182    0.74611   1.00
C5       1.14320    0.54694    0.72543   1.00
H2       1.18937    0.54198    0.72344   1.00
H2       1.09959    0.49470    0.72827   1.00
C5       1.15203    0.59387    0.74347   1.00
H2       1.16868    0.57727    0.75712   1.00
C5       0.56833    -0.01912   0.58331   1.00
H2       0.57950    -0.06156   0.58402   1.00
H2       0.61848    0.02853    0.58439   1.00
C5       0.53345    -0.02191   0.56286   1.00
H2       0.57193    0.00171    0.55053   1.00
H2       0.50443    0.00566    0.56416   1.00
O_3      0.46246    0.06664    0.67210   1.00
C4       0.50558    -0.02999   0.66886   1.00
C3c      0.53626    -0.01962   0.64969   1.00
H1       0.58219    0.02796    0.64642   1.00
C3d      0.44630    -0.09273   0.67291   1.00
C3       0.50791    -0.06968   0.63441   1.00
O2       0.54516    -0.05933   0.61694   1.00
C3       0.41722    -0.14216   0.65760   1.00
H1       0.37040    -0.18850   0.66118   1.00
C2       0.44717    -0.13221   0.63806   1.00
C5       0.39840    0.04013    0.68169   1.00
H2       0.40019    0.07154    0.69495   1.00
H2       0.37942    -0.01311   0.68705   1.00
C5       0.34869    0.04010    0.66620   1.00
H2       0.34835    0.01031    0.65271   1.00
H2       0.36781    0.09357    0.66110   1.00
C5       0.27685    0.00965    0.67520   1.00
H2       0.27690    0.03887    0.68877   1.00
H2       0.25677    -0.04449   0.67965   1.00
H2       0.24157    0.01144    0.66381   1.00
C5       0.43821    -0.12918   0.70558   1.00
C5       0.52543    -0.02729   0.60217   1.00
H2       0.49272    -0.09207   0.70878   1.00
H2       0.43386    -0.17828   0.70058   1.00
H2       0.53602    0.02363    0.60773   1.00
H2       0.46984    -0.05759   0.59846   1.00
H2       0.49802    -0.07574   0.55809   1.00
H2       0.48062    -0.10313   0.74751   1.00
H2       0.44623    -0.19195   0.74040   1.00
C2       0.58495    0.12313    0.71518   1.00
C3       0.60996    0.07747    0.71316   1.00
O2       0.64655    0.06998    0.72869   1.00
C3       0.53608    0.11898    0.70100   1.00
H1       0.51724    0.15433    0.70181   1.00
C3a      0.58467    0.02815    0.69757   1.00
H1       0.60144    -0.00891   0.69693   1.00
C3b      0.50943    0.06849    0.68592   1.00
C4       0.53356    0.02246    0.68412   1.00
O_3      0.41129    -0.10348   0.69099   1.00
C5       0.71686    0.10591    0.72416   1.00
H2       0.72794    0.08696    0.70984   1.00
C5       0.75356    0.09417    0.74186   1.00
H2       0.73583    0.16156    0.72255   1.00
H2       0.74883    0.04312    0.73997   1.00
H2       0.72543    0.09170    0.75599   1.00
C5       0.82916    0.15004    0.74357   1.00
H2       0.85515    0.15548    0.72882   1.00
H2       0.85547    0.13679    0.75548   1.00
H2       0.83456    0.20015    0.74803   1.00
C5       0.39743    -0.14137   0.72503   1.00
H2       0.34583    -0.18664   0.72278   1.00
H2       0.39014    -0.09679   0.72756   1.00
C5       0.43323    -0.15145   0.74346   1.00
H2       0.39896    -0.16721   0.75687   1.00
C5       0.41290    0.43193    0.58328   1.00
H2       0.35926    0.42069    0.58398   1.00
H2       0.41047    0.38181    0.58436   1.00
C5       0.44504    0.46690    0.56285   1.00
H2       0.43027    0.42847    0.55051   1.00
H2       0.50162    0.49597    0.56416   1.00
O_3      0.60419    0.53769    0.67214   1.00
C4       0.46442    0.49442    0.66886   1.00
C3c      0.44421    0.46380    0.64968   1.00
H1       0.44593    0.41791    0.64640   1.00
C3d      0.46086    0.55364    0.67292   1.00
C3       0.42250    0.49215    0.63440   1.00
O2       0.39569    0.45495    0.61692   1.00
C3       0.44051    0.58272    0.65761   1.00
H1       0.44091    0.62949    0.66120   1.00
C2       0.42061    0.55283    0.63806   1.00
C5       0.64165    0.60173    0.68175   1.00
H2       0.67125    0.59994    0.69501   1.00
H2       0.60731    0.62063    0.68711   1.00
C5       0.69134    0.65152    0.66628   1.00
H2       0.66193    0.65187    0.65278   1.00
H2       0.72576    0.63248    0.66119   1.00
C5       0.73264    0.72335    0.67530   1.00
H2       0.76177    0.72328    0.68888   1.00
H2       0.69851    0.74335    0.67975   1.00
H2       0.76971    0.75869    0.66392   1.00
C5       0.43235    0.56157    0.70559   1.00
C5       0.44753    0.47478    0.60216   1.00
H2       0.41501    0.50707    0.70877   1.00
H2       0.38758    0.56587    0.70057   1.00
H2       0.48789    0.46424    0.60773   1.00
H2       0.47277    0.53039    0.59847   1.00
H2       0.42659    0.50229    0.55809   1.00
H2       0.41588    0.51902    0.74750   1.00
H2       0.36140    0.55334    0.74039   1.00
C2       0.53816    0.41505    0.71518   1.00
C3       0.46748    0.38996    0.71314   1.00
O2       0.42338    0.35329    0.72865   1.00
C3       0.58290    0.46399    0.70102   1.00
H1       0.63711    0.48290    0.70185   1.00
C3a      0.44347    0.41526    0.69755   1.00
H1       0.38962    0.39843    0.69690   1.00
C3b      0.55906    0.49065    0.68594   1.00
C4       0.48889    0.46644    0.68413   1.00
O_3      0.48502    0.58860    0.69101   1.00
C5       0.38909    0.28300    0.72410   1.00
H2       0.35910    0.27193    0.70977   1.00
C5       0.34060    0.24619    0.74178   1.00
H2       0.42583    0.26410    0.72250   1.00
H2       0.29425    0.25086    0.73989   1.00
H2       0.36618    0.27429    0.75592   1.00
C5       0.32095    0.17061    0.74348   1.00
H2       0.30048    0.14466    0.72872   1.00
H2       0.28136    0.14422    0.75537   1.00
H2       0.36569    0.16527    0.74795   1.00
C5       0.46083    0.60229    0.72505   1.00
H2       0.46710    0.65388    0.72281   1.00
H2       0.51272    0.60965    0.72759   1.00
C5       0.41490    0.56640    0.74346   1.00
H2       0.43332    0.60062    0.75689   1.00
C5       0.30270    -0.32368   0.17351   1.00
H2       0.26296    -0.32765   0.16283   1.00
H2       0.28271    -0.32453   0.18896   1.00
C5       0.31354    -0.38538   0.17051   1.00
H2       0.27371    -0.43100   0.17869   1.00
H2       0.36466    -0.37297   0.17629   1.00
O_3      0.57982    -0.00086   0.19209   1.00
C4       0.46467    -0.02928   0.16865   1.00
C3c      0.41602    -0.09751   0.17276   1.00
H1       0.39526    -0.11205   0.18788   1.00
C3d      0.49035    -0.01123   0.14878   1.00
C3       0.39413    -0.14805   0.15762   1.00
O2       0.34050    -0.21183   0.16211   1.00
C3       0.46964    -0.06166   0.13376   1.00
H1       0.49254    -0.04582   0.11893   1.00
C2       0.42104    -0.13104   0.13771   1.00
C5       0.64170    0.04009    0.18170   1.00
H2       0.67689    0.08692    0.19039   1.00
H2       0.63239    0.05601    0.16658   1.00
C5       0.67616    -0.00215   0.17872   1.00
H2       0.64025    -0.04987   0.17053   1.00
H2       0.68579    -0.01722   0.19391   1.00
C5       0.74297    0.03787    0.16684   1.00
H2       0.77889    0.08583    0.17486   1.00
H2       0.73314    0.05090    0.15140   1.00
H2       0.76816    0.00674    0.16520   1.00
C5       0.51346    0.09501    0.13919   1.00
C5       0.36550    -0.25400   0.16931   1.00
H2       0.48423    0.09931    0.15210   1.00
H2       0.47893    0.07426    0.12579   1.00
H2       0.39528    -0.23236   0.18355   1.00
H2       0.39989    -0.25911   0.15815   1.00
H2       0.30925    -0.40010   0.15416   1.00
H2       0.53600    0.22895    0.14915   1.00
H2       0.50416    0.20275    0.12350   1.00
C2       0.53892    0.12521    0.21456   1.00
C3       0.47898    0.10931    0.20373   1.00
O2       0.45350    0.15336    0.20399   1.00
C3       0.57127    0.08676    0.21055   1.00
H1       0.61622    0.09648    0.21895   1.00
C3a      0.45398    0.05726    0.18894   1.00
H1       0.41029    0.04835    0.17998   1.00
C3b      0.54752    0.03653    0.19538   1.00
C4       0.48854    0.02150    0.18441   1.00
O_3      0.54206    0.05412    0.14431   1.00
C5       0.39738    0.12900    0.21732   1.00
H2       0.35560    0.07751    0.21263   1.00
C5       0.37148    0.17978    0.21650   1.00
H2       0.41282    0.12577    0.23315   1.00
H2       0.33978    0.16927    0.20261   1.00
H2       0.41672    0.23161    0.21455   1.00
C5       0.33065    0.17718    0.23553   1.00
H2       0.28896    0.12398    0.23815   1.00
H2       0.30789    0.21051    0.23365   1.00
H2       0.36410    0.19602    0.24925   1.00
C5       0.57197    0.16582    0.13404   1.00
H2       0.59373    0.16332    0.11913   1.00
H2       0.61291    0.18006    0.14557   1.00
C5       0.54905    0.21938    0.13363   1.00
H2       0.59100    0.26862    0.12779   1.00
C5       1.05432    0.38262    0.09244   1.00
H2       1.05814    0.42526    0.08313   1.00
H2       0.99994    0.34184    0.09178   1.00
C5       1.10043    0.35712    0.08323   1.00
H2       1.07450    0.32187    0.07031   1.00
H2       1.11316    0.32997    0.09499   1.00
O_3      1.02998    0.40287    0.19717   1.00
C4       1.02940    0.49524    0.16871   1.00
C3c      1.01972    0.46362    0.14971   1.00
H1       0.97252    0.41714    0.14654   1.00
C3d      1.09088    0.55629    0.17243   1.00
C3       1.07073    0.49062    0.13468   1.00
O2       1.05445    0.46165    0.11568   1.00
C3       1.14229    0.58260    0.15764   1.00
H1       1.18951    0.62820    0.16144   1.00
C2       1.13363    0.55086    0.13843   1.00
C5       1.07901    0.43555    0.21260   1.00
H2       1.05606    0.42197    0.22806   1.00
H2       1.10527    0.49214    0.21096   1.00
C5       1.13127    0.41247    0.21067   1.00
H2       1.15282    0.42430    0.19504   1.00
H2       1.10460    0.35600    0.21252   1.00
C5       1.18805    0.44762    0.22650   1.00
H2       1.16683    0.43641    0.24214   1.00
H2       1.21625    0.50385    0.22422   1.00
H2       1.22494    0.42899    0.22514   1.00
C5       1.07907    0.63163    0.19258   1.00
C5       1.07304    0.41081    0.11404   1.00
H2       1.02269    0.60398    0.19078   1.00
H2       1.10205    0.67237    0.18080   1.00
H2       1.04418    0.36948    0.12533   1.00
H2       1.12862    0.43117    0.11689   1.00
H2       1.14865    0.40037    0.07701   1.00
H2       1.00072    0.66212    0.22093   1.00
H2       1.06103    0.73624    0.20643   1.00
C2       0.87940    0.41152    0.21583   1.00
C3       0.87598    0.45491    0.20108   1.00
O2       0.83613    0.48430    0.20433   1.00
C3       0.93111    0.39411    0.21400   1.00
H1       0.93403    0.35962    0.22474   1.00
C3a      0.92470    0.48105    0.18533   1.00
H1       0.92375    0.51726    0.17484   1.00
C3b      0.98077    0.42192    0.19870   1.00
C4       0.97794    0.46587    0.18423   1.00
O_3      1.10501    0.58658    0.19139   1.00
C5       0.77484    0.44934    0.19322   1.00
H2       0.78498    0.45055    0.17661   1.00
C5       0.73427    0.48554    0.19734   1.00
H2       0.74448    0.39512    0.19817   1.00
H2       0.75536    0.53205    0.18768   1.00
H2       0.74408    0.50345    0.21337   1.00
C5       0.65715    0.43957    0.19354   1.00
H2       0.64863    0.41785    0.17799   1.00
H2       0.63025    0.46920    0.19503   1.00
H2       0.63353    0.39724    0.20488   1.00
C5       1.09687    0.66459    0.21348   1.00
H2       1.15268    0.70151    0.21397   1.00
H2       1.08648    0.62422    0.22489   1.00
C5       1.05583    0.70004    0.21865   1.00
H2       1.07511    0.72940    0.23298   1.00
C5       0.60203    0.64044    0.08818   1.00
H2       0.55472    0.60211    0.08043   1.00
H2       0.63799    0.62062    0.08721   1.00
C5       0.63164    0.70971    0.07707   1.00
H2       0.66140    0.71087    0.06348   1.00
H2       0.66549    0.75195    0.08746   1.00
O_3      0.61092    0.62919    0.19359   1.00
C4       0.50470    0.53420    0.16873   1.00
C3c      0.53073    0.54721    0.14889   1.00
H1       0.57276    0.53942    0.14505   1.00
C3d      0.44929    0.54373    0.17335   1.00
C3       0.50388    0.57126    0.13382   1.00
O2       0.52630    0.57487    0.11422   1.00
C3       0.42328    0.56892    0.15848   1.00
H1       0.38238    0.57774    0.16292   1.00
C2       0.44950    0.58305    0.13840   1.00
C5       0.58752    0.65554    0.20906   1.00
H2       0.60385    0.64879    0.22442   1.00
H2       0.53074    0.63039    0.20895   1.00
C5       0.61764    0.73134    0.20512   1.00
H2       0.60291    0.73818    0.18955   1.00
H2       0.67431    0.75602    0.20546   1.00
C5       0.59272    0.76371    0.22091   1.00
H2       0.60684    0.75665    0.23651   1.00
H2       0.53635    0.74073    0.22011   1.00
H2       0.61644    0.81938    0.21806   1.00
C5       0.37498    0.46801    0.19643   1.00
C5       0.58156    0.64095    0.11029   1.00
H2       0.39651    0.43358    0.19486   1.00
H2       0.33125    0.45085    0.18573   1.00
H2       0.62503    0.65231    0.12061   1.00
H2       0.56792    0.68160    0.11266   1.00
H2       0.59015    0.71858    0.07143   1.00
H2       0.34222    0.36621    0.22748   1.00
H2       0.26713    0.35667    0.21448   1.00
C2       0.58912    0.46838    0.21578   1.00
C3       0.53840    0.42001    0.20280   1.00
O2       0.50359    0.35187    0.20800   1.00
C3       0.61324    0.53840    0.21217   1.00
H1       0.65328    0.57676    0.22150   1.00
C3a      0.51194    0.44221    0.18704   1.00
H1       0.47042    0.40442    0.17797   1.00
C3b      0.58530    0.56020    0.19690   1.00
C4       0.53414    0.51202    0.18421   1.00
O_3      0.42518    0.53662    0.19300   1.00
C5       0.52925    0.31607    0.19701   1.00
H2       0.52397    0.32038    0.18032   1.00
C5       0.48747    0.24114    0.20335   1.00
H2       0.58408    0.33575    0.20059   1.00
H2       0.43811    0.21732    0.19501   1.00
H2       0.47493    0.23999    0.21973   1.00
C5       0.52507    0.20116    0.19957   1.00
H2       0.54193    0.20734    0.18349   1.00
H2       0.49105    0.14588    0.20274   1.00
H2       0.57026    0.21898    0.20978   1.00
C5       0.34915    0.46292    0.21804   1.00
H2       0.31738    0.48776    0.21866   1.00
H2       0.39393    0.49289    0.22811   1.00
C5       0.30842    0.38852    0.22540   1.00
H2       0.28448    0.38623    0.24031   1.00
C5       0.34254    0.64802    0.65948   1.00
H2       0.33647    0.60608    0.66957   1.00
H2       0.34085    0.62969    0.64375   1.00
C5       0.28304    0.66192    0.66309   1.00
H2       0.23667    0.62461    0.65464   1.00
H2       0.29786    0.71441    0.65801   1.00
O_3      0.67128    0.91761    0.64282   1.00
C4       0.63735    0.79798    0.66468   1.00
C3c      0.56847    0.75224    0.66032   1.00
H1       0.55342    0.73379    0.64500   1.00
C3d      0.65602    0.82064    0.68480   1.00
C3       0.51799    0.73040    0.67548   1.00
O2       0.45320    0.67939    0.67064   1.00
C3       0.60571    0.80000    0.69985   1.00
H1       0.62214    0.82062    0.71491   1.00
C2       0.53572    0.75436    0.69566   1.00
C5       0.71423    0.97745    0.65386   1.00
H2       0.76173    1.01223    0.64538   1.00
H2       0.72907    0.96503    0.66871   1.00
C5       0.67491    1.01452    0.65768   1.00
H2       0.62652    0.97910    0.66565   1.00
H2       0.66092    1.02722    0.64276   1.00
C5       0.71720    1.07925    0.67028   1.00
H2       0.76582    1.11464    0.66248   1.00
H2       0.72918    1.06641    0.68546   1.00
H2       0.68821    1.10644    0.67254   1.00
C5       0.76048    0.83749    0.69396   1.00
C5       0.41355    0.70816    0.66413   1.00
H2       0.76328    0.80908    0.68058   1.00
H2       0.73833    0.80138    0.70697   1.00
H2       0.43633    0.73946    0.65021   1.00
H2       0.41025    0.74212    0.67585   1.00
H2       0.26832    0.65606    0.67947   1.00
H2       0.89207    0.85498    0.68337   1.00
H2       0.86463    0.82026    0.70870   1.00
C2       0.79205    0.87223    0.61884   1.00
C3       0.77333    0.81020    0.62885   1.00
O2       0.81485    0.78186    0.62787   1.00
C3       0.75629    0.90681    0.62362   1.00
H1       0.76819    0.95349    0.61585   1.00
C3a      0.72122    0.78529    0.64361   1.00
H1       0.71016    0.73980    0.65196   1.00
C3b      0.70601    0.88304    0.63877   1.00
C4       0.68817    0.82192    0.64893   1.00
O_3      0.72226    0.86960    0.68958   1.00
C5       0.78837    0.72746    0.61387   1.00
H2       0.73604    0.68671    0.61829   1.00
C5       0.83641    0.69819    0.61392   1.00
H2       0.78621    0.74559    0.59832   1.00
H2       0.82437    0.66439    0.62739   1.00
H2       0.88917    0.74157    0.61619   1.00
C5       0.83196    0.65910    0.59430   1.00
H2       0.77806    0.61952    0.59143   1.00
H2       0.86317    0.63381    0.59559   1.00
H2       0.85220    0.69424    0.58097   1.00
C5       0.83237    0.89305    0.69948   1.00
H2       0.83089    0.91344    0.71473   1.00
H2       0.84849    0.93579    0.68850   1.00
C5       0.88326    0.86674    0.69915   1.00
H2       0.93330    0.90635    0.70527   1.00
C5       0.42828    0.60254    0.67290   1.00
H2       0.40865    0.63857    0.67416   1.00
H2       0.44266    0.60380    0.65673   1.00
C5       0.49151    0.62681    0.68672   1.00
H2       0.53806    0.66764    0.67916   1.00
H2       0.49946    0.58328    0.69035   1.00
O_3      0.19099    0.25669    0.66433   1.00
C4       0.16081    0.36312    0.66454   1.00
C3c      0.22345    0.42348    0.66190   1.00
H1       0.25141    0.43191    0.64789   1.00
C3d      0.12472    0.35358    0.68279   1.00
C3       0.25144    0.47327    0.67726   1.00
O2       0.30859    0.53447    0.67266   1.00
C3       0.15306    0.40245    0.69827   1.00
H1       0.12468    0.39180    0.71227   1.00
C2       0.21671    0.46344    0.69593   1.00
C5       0.15251    0.20548    0.67871   1.00
H2       0.12406    0.15386    0.67169   1.00
H2       0.11500    0.21591    0.68656   1.00
C5       0.20191    0.20528    0.69427   1.00
H2       0.23170    0.25739    0.70088   1.00
H2       0.23870    0.19419    0.68630   1.00
C5       0.16390    0.15246    0.71096   1.00
H2       0.13366    0.10037    0.70444   1.00
H2       0.12888    0.16484    0.71938   1.00
H2       0.20094    0.15201    0.72194   1.00
C5       0.00909    0.29626    0.67904   1.00
C5       0.36785    0.53239    0.67819   1.00
H2       0.01254    0.30308    0.66229   1.00
H2       0.00493    0.33891    0.68603   1.00
H2       0.37083    0.49175    0.66946   1.00
H2       0.36875    0.52123    0.69469   1.00
H2       0.48562    0.64932    0.70114   1.00
H2       -0.11149   0.21097    0.65539   1.00
H2       -0.12426   0.26404    0.67352   1.00
C2       0.07676    0.20646    0.61932   1.00
C3       0.06386    0.26130    0.61851   1.00
O2       0.01168    0.25696    0.60662   1.00
C3       0.12042    0.20666    0.63471   1.00
H1       0.13271    0.16634    0.63543   1.00
C3a      0.09302    0.31354    0.63320   1.00
H1       0.07954    0.35310    0.63306   1.00
C3b      0.14756    0.25752    0.64968   1.00
C4       0.13386    0.31145    0.64904   1.00
O_3      0.06543    0.29286    0.68675   1.00
C5       0.03810    0.29435    0.58854   1.00
H2       0.07450    0.34929    0.59176   1.00
C5       -0.02250   0.28797    0.57643   1.00
H2       0.06496    0.27344    0.57943   1.00
H2       -0.03712   0.32437    0.58283   1.00
H2       -0.06643   0.23584    0.57914   1.00
C5       -0.00753   0.30076    0.55354   1.00
H2       0.03958    0.35072    0.55120   1.00
H2       -0.05052   0.30137    0.54553   1.00
H2       -0.00130   0.25946    0.54636   1.00
C5       -0.05484   0.22910    0.68407   1.00
H2       -0.06461   0.22785    0.70067   1.00
H2       -0.04450   0.18682    0.68083   1.00
C5       -0.11703   0.21917    0.67181   1.00
H2       -0.16392   0.17342    0.67737   1.00
C5       0.18547    0.57615    0.67105   1.00
H2       0.24128    0.59777    0.67287   1.00
H2       0.17470    0.56340    0.65470   1.00
C5       0.14701    0.51106    0.68416   1.00
H2       0.14431    0.46628    0.67628   1.00
H2       0.09430    0.50045    0.68733   1.00
O_3      0.06409    0.80336    0.66307   1.00
C4       0.20230    0.83922    0.66455   1.00
C3c      0.20331    0.77835    0.66151   1.00
H1       0.18638    0.75180    0.64719   1.00
C3d      0.22550    0.87353    0.68321   1.00
C3       0.22508    0.75030    0.67686   1.00
O2       0.23253    0.69531    0.67195   1.00
C3       0.24598    0.84506    0.69867   1.00
H1       0.26105    0.87194    0.71297   1.00
C2       0.24661    0.78315    0.69592   1.00
C5       0.04747    0.83860    0.67758   1.00
H2       0.02326    0.86606    0.67055   1.00
H2       0.09374    0.87651    0.68603   1.00
C5       -0.00275   0.78627    0.69243   1.00
H2       0.02070    0.75751    0.69903   1.00
H2       -0.04898   0.74907    0.68387   1.00
C5       -0.02174   0.82069    0.70922   1.00
H2       -0.04475   0.84989    0.70273   1.00
H2       0.02402    0.85608    0.71823   1.00
H2       -0.05962   0.78152    0.71967   1.00
C5       0.28001    0.98945    0.68063   1.00
C5       0.17198    0.63399    0.67663   1.00
H2       0.28565    0.98820    0.66390   1.00
H2       0.32683    0.99491    0.68801   1.00
H2       0.12858    0.63004    0.66754   1.00
H2       0.15770    0.63062    0.69301   1.00
H2       0.17402    0.51646    0.69883   1.00
H2       0.31317    1.11144    0.65802   1.00
H2       0.37767    1.12488    0.67673   1.00
C2       0.12949    0.92301    0.61931   1.00
C3       0.19823    0.93887    0.61911   1.00
O2       0.24608    0.99340    0.60793   1.00
C3       0.08529    0.87659    0.63408   1.00
H1       0.03199    0.86203    0.63431   1.00
C3a      0.22146    0.90983    0.63379   1.00
H1       0.27506    0.92549    0.63415   1.00
C3b      0.10903    0.84950    0.64905   1.00
C4       0.17761    0.86614    0.64903   1.00
O_3      0.22070    0.93080    0.68752   1.00
C5       0.26075    0.97027    0.58978   1.00
H2       0.28108    0.93528    0.59293   1.00
C5       0.31476    1.03333    0.57849   1.00
H2       0.21430    0.94288    0.58014   1.00
H2       0.36544    1.04924    0.58538   1.00
H2       0.30392    1.07545    0.58140   1.00
C5       0.31602    1.02130    0.55551   1.00
H2       0.32147    0.97578    0.55290   1.00
H2       0.35949    1.06620    0.54811   1.00
H2       0.26858    1.01381    0.54792   1.00
C5       0.27302    1.05104    0.68603   1.00
H2       0.27925    1.05903    0.70273   1.00
H2       0.22011    1.03885    0.68230   1.00
C5       0.32496    1.11557    0.67457   1.00
H2       0.32319    1.16069    0.68042   1.00
