data_IRMOF10_interpen_symm_ligand3cp_label_c_2.

_audit_creation_method             'generated by an auxiliary program of Tobunporous'

_symmetry_space_group_name_H-M     'P 1'
_symmetry_Int_Tables_number        1
_symmetry_cell_setting             triclinic

_cell_length_a                    22.6523
_cell_length_b                    22.6523
_cell_length_c                    65.9502
_cell_angle_alpha                 90.0000
_cell_angle_beta                  90.0000
_cell_angle_gamma                 120.0000

loop_
_atom_site_label
_atom_site_fract_x
_atom_site_fract_y
_atom_site_fract_z
_atom_site_occupancy
O1       0.00000    0.00000    0.57470   1.00
Zn1      0.00000    0.00000    0.54560   1.00
Zn1      0.94843    0.04287    0.58357   1.00
Zn1      0.09443    0.05157    0.58357   1.00
Zn1      0.95713    0.90557    0.58357   1.00
O2       0.93860    0.02610    0.53560   1.00
O2       0.08750    0.06140    0.53560   1.00
O2       0.97390    0.91250    0.53560   1.00
O2       0.91300    0.07160    0.56150   1.00
O2       0.00463    0.12027    0.60077   1.00
O2       0.87413    0.98077    0.60037   1.00
O2       0.15860    0.08700    0.56150   1.00
O2       0.10663    0.12587    0.60037   1.00
O2       0.11563    0.99537    0.60077   1.00
O2       0.92840    0.84140    0.56150   1.00
O2       0.87973    0.88437    0.60077   1.00
O2       0.01923    0.89337    0.60037   1.00
C1       0.91390    0.06020    0.54330   1.00
C1       0.14630    0.08610    0.54330   1.00
C1       0.93980    0.85370    0.54330   1.00
C1       0.06663    0.14397    0.60637   1.00
C1       0.85603    0.92267    0.60637   1.00
C1       0.07733    0.93337    0.60637   1.00
O1       0.00000    0.00000    0.92530   1.00
Zn1      0.00000    0.00000    0.95440   1.00
Zn1      0.04287    0.94843    0.91643   1.00
Zn1      0.05157    0.09443    0.91643   1.00
Zn1      0.90557    0.95713    0.91643   1.00
O2       0.02610    0.93860    0.96440   1.00
O2       0.06140    0.08750    0.96440   1.00
O2       0.91250    0.97390    0.96440   1.00
O2       0.07160    0.91300    0.93850   1.00
O2       0.12027    0.00463    0.89923   1.00
O2       0.98077    0.87413    0.89963   1.00
O2       0.08700    0.15860    0.93850   1.00
O2       0.12587    0.10663    0.89963   1.00
O2       0.99537    0.11563    0.89923   1.00
O2       0.84140    0.92840    0.93850   1.00
O2       0.88437    0.87973    0.89923   1.00
O2       0.89337    0.01923    0.89963   1.00
C1       0.06020    0.91390    0.95670   1.00
C1       0.08610    0.14630    0.95670   1.00
C1       0.85370    0.93980    0.95670   1.00
C1       0.14397    0.06663    0.89363   1.00
C1       0.92267    0.85603    0.89363   1.00
C1       0.93337    0.07733    0.89363   1.00
O1       0.00000    0.00000    0.42530   1.00
Zn1      0.00000    0.00000    0.45440   1.00
Zn1      0.05157    0.95713    0.41643   1.00
Zn1      0.90557    0.94843    0.41643   1.00
Zn1      0.04287    0.09443    0.41643   1.00
O2       0.06140    0.97390    0.46440   1.00
O2       0.91250    0.93860    0.46440   1.00
O2       0.02610    0.08750    0.46440   1.00
O2       0.08700    0.92840    0.43850   1.00
O2       0.99537    0.87973    0.39923   1.00
O2       0.12587    0.01923    0.39963   1.00
O2       0.84140    0.91300    0.43850   1.00
O2       0.89337    0.87413    0.39963   1.00
O2       0.88437    0.00463    0.39923   1.00
O2       0.07160    0.15860    0.43850   1.00
O2       0.12027    0.11563    0.39923   1.00
O2       0.98077    0.10663    0.39963   1.00
C1       0.08610    0.93980    0.45670   1.00
C1       0.85370    0.91390    0.45670   1.00
C1       0.06020    0.14630    0.45670   1.00
C1       0.93337    0.85603    0.39363   1.00
C1       0.14397    0.07733    0.39363   1.00
C1       0.92267    0.06663    0.39363   1.00
O1       0.00000    0.00000    0.07470   1.00
Zn1      0.00000    0.00000    0.04560   1.00
Zn1      0.95713    0.05157    0.08357   1.00
Zn1      0.94843    0.90557    0.08357   1.00
Zn1      0.09443    0.04287    0.08357   1.00
O2       0.97390    0.06140    0.03560   1.00
O2       0.93860    0.91250    0.03560   1.00
O2       0.08750    0.02610    0.03560   1.00
O2       0.92840    0.08700    0.06150   1.00
O2       0.87973    0.99537    0.10077   1.00
O2       0.01923    0.12587    0.10037   1.00
O2       0.91300    0.84140    0.06150   1.00
O2       0.87413    0.89337    0.10037   1.00
O2       0.00463    0.88437    0.10077   1.00
O2       0.15860    0.07160    0.06150   1.00
O2       0.11563    0.12027    0.10077   1.00
O2       0.10663    0.98077    0.10037   1.00
C1       0.93980    0.08610    0.04330   1.00
C1       0.91390    0.85370    0.04330   1.00
C1       0.14630    0.06020    0.04330   1.00
C1       0.85603    0.93337    0.10637   1.00
C1       0.07733    0.14397    0.10637   1.00
C1       0.06663    0.92267    0.10637   1.00
O1       0.66667    0.33333    0.90803   1.00
Zn1      0.66667    0.33333    0.87893   1.00
Zn1      0.61510    0.37620    0.91690   1.00
Zn1      0.76110    0.38490    0.91690   1.00
Zn1      0.62380    0.23890    0.91690   1.00
O2       0.60527    0.35943    0.86893   1.00
O2       0.75417    0.39473    0.86893   1.00
O2       0.64057    0.24583    0.86893   1.00
O2       0.57967    0.40493    0.89483   1.00
O2       0.67130    0.45360    0.93410   1.00
O2       0.54080    0.31410    0.93370   1.00
O2       0.82527    0.42033    0.89483   1.00
O2       0.77330    0.45920    0.93370   1.00
O2       0.78230    0.32870    0.93410   1.00
O2       0.59507    0.17473    0.89483   1.00
O2       0.54640    0.21770    0.93410   1.00
O2       0.68590    0.22670    0.93370   1.00
C1       0.58057    0.39353    0.87663   1.00
C1       0.81297    0.41943    0.87663   1.00
C1       0.60647    0.18703    0.87663   1.00
C1       0.73330    0.47730    0.93970   1.00
C1       0.52270    0.25600    0.93970   1.00
C1       0.74400    0.26670    0.93970   1.00
O1       0.66667    0.33333    0.25863   1.00
Zn1      0.66667    0.33333    0.28773   1.00
Zn1      0.70953    0.28177    0.24977   1.00
Zn1      0.71823    0.42777    0.24977   1.00
Zn1      0.57223    0.29047    0.24977   1.00
O2       0.69277    0.27193    0.29773   1.00
O2       0.72807    0.42083    0.29773   1.00
O2       0.57917    0.30723    0.29773   1.00
O2       0.73827    0.24633    0.27183   1.00
O2       0.78693    0.33797    0.23257   1.00
O2       0.64743    0.20747    0.23297   1.00
O2       0.75367    0.49193    0.27183   1.00
O2       0.79253    0.43997    0.23297   1.00
O2       0.66203    0.44897    0.23257   1.00
O2       0.50807    0.26173    0.27183   1.00
O2       0.55103    0.21307    0.23257   1.00
O2       0.56003    0.35257    0.23297   1.00
C1       0.72687    0.24723    0.29003   1.00
C1       0.75277    0.47963    0.29003   1.00
C1       0.52037    0.27313    0.29003   1.00
C1       0.81063    0.39997    0.22697   1.00
C1       0.58933    0.18937    0.22697   1.00
C1       0.60003    0.41067    0.22697   1.00
O1       0.66667    0.33333    0.75863   1.00
Zn1      0.66667    0.33333    0.78773   1.00
Zn1      0.71823    0.29047    0.74977   1.00
Zn1      0.57223    0.28177    0.74977   1.00
Zn1      0.70953    0.42777    0.74977   1.00
O2       0.72807    0.30723    0.79773   1.00
O2       0.57917    0.27193    0.79773   1.00
O2       0.69277    0.42083    0.79773   1.00
O2       0.75367    0.26173    0.77183   1.00
O2       0.66203    0.21307    0.73257   1.00
O2       0.79253    0.35257    0.73297   1.00
O2       0.50807    0.24633    0.77183   1.00
O2       0.56003    0.20747    0.73297   1.00
O2       0.55103    0.33797    0.73257   1.00
O2       0.73827    0.49193    0.77183   1.00
O2       0.78693    0.44897    0.73257   1.00
O2       0.64743    0.43997    0.73297   1.00
C1       0.75277    0.27313    0.79003   1.00
C1       0.52037    0.24723    0.79003   1.00
C1       0.72687    0.47963    0.79003   1.00
C1       0.60003    0.18937    0.72697   1.00
C1       0.81063    0.41067    0.72697   1.00
C1       0.58933    0.39997    0.72697   1.00
O1       0.66667    0.33333    0.40803   1.00
Zn1      0.66667    0.33333    0.37893   1.00
Zn1      0.62380    0.38490    0.41690   1.00
Zn1      0.61510    0.23890    0.41690   1.00
Zn1      0.76110    0.37620    0.41690   1.00
O2       0.64057    0.39473    0.36893   1.00
O2       0.60527    0.24583    0.36893   1.00
O2       0.75417    0.35943    0.36893   1.00
O2       0.59507    0.42033    0.39483   1.00
O2       0.54640    0.32870    0.43410   1.00
O2       0.68590    0.45920    0.43370   1.00
O2       0.57967    0.17473    0.39483   1.00
O2       0.54080    0.22670    0.43370   1.00
O2       0.67130    0.21770    0.43410   1.00
O2       0.82527    0.40493    0.39483   1.00
O2       0.78230    0.45360    0.43410   1.00
O2       0.77330    0.31410    0.43370   1.00
C1       0.60647    0.41943    0.37663   1.00
C1       0.58057    0.18703    0.37663   1.00
C1       0.81297    0.39353    0.37663   1.00
C1       0.52270    0.26670    0.43970   1.00
C1       0.74400    0.47730    0.43970   1.00
C1       0.73330    0.25600    0.43970   1.00
O1       0.33333    0.66667    0.24137   1.00
Zn1      0.33333    0.66667    0.21227   1.00
Zn1      0.28177    0.70953    0.25023   1.00
Zn1      0.42777    0.71823    0.25023   1.00
Zn1      0.29047    0.57223    0.25023   1.00
O2       0.27193    0.69277    0.20227   1.00
O2       0.42083    0.72807    0.20227   1.00
O2       0.30723    0.57917    0.20227   1.00
O2       0.24633    0.73827    0.22817   1.00
O2       0.33797    0.78693    0.26743   1.00
O2       0.20747    0.64743    0.26703   1.00
O2       0.49193    0.75367    0.22817   1.00
O2       0.43997    0.79253    0.26703   1.00
O2       0.44897    0.66203    0.26743   1.00
O2       0.26173    0.50807    0.22817   1.00
O2       0.21307    0.55103    0.26743   1.00
O2       0.35257    0.56003    0.26703   1.00
C1       0.24723    0.72687    0.20997   1.00
C1       0.47963    0.75277    0.20997   1.00
C1       0.27313    0.52037    0.20997   1.00
C1       0.39997    0.81063    0.27303   1.00
C1       0.18937    0.58933    0.27303   1.00
C1       0.41067    0.60003    0.27303   1.00
O1       0.33333    0.66667    0.59197   1.00
Zn1      0.33333    0.66667    0.62107   1.00
Zn1      0.37620    0.61510    0.58310   1.00
Zn1      0.38490    0.76110    0.58310   1.00
Zn1      0.23890    0.62380    0.58310   1.00
O2       0.35943    0.60527    0.63107   1.00
O2       0.39473    0.75417    0.63107   1.00
O2       0.24583    0.64057    0.63107   1.00
O2       0.40493    0.57967    0.60517   1.00
O2       0.45360    0.67130    0.56590   1.00
O2       0.31410    0.54080    0.56630   1.00
O2       0.42033    0.82527    0.60517   1.00
O2       0.45920    0.77330    0.56630   1.00
O2       0.32870    0.78230    0.56590   1.00
O2       0.17473    0.59507    0.60517   1.00
O2       0.21770    0.54640    0.56590   1.00
O2       0.22670    0.68590    0.56630   1.00
C1       0.39353    0.58057    0.62337   1.00
C1       0.41943    0.81297    0.62337   1.00
C1       0.18703    0.60647    0.62337   1.00
C1       0.47730    0.73330    0.56030   1.00
C1       0.25600    0.52270    0.56030   1.00
C1       0.26670    0.74400    0.56030   1.00
O1       0.33333    0.66667    0.09197   1.00
Zn1      0.33333    0.66667    0.12107   1.00
Zn1      0.38490    0.62380    0.08310   1.00
Zn1      0.23890    0.61510    0.08310   1.00
Zn1      0.37620    0.76110    0.08310   1.00
O2       0.39473    0.64057    0.13107   1.00
O2       0.24583    0.60527    0.13107   1.00
O2       0.35943    0.75417    0.13107   1.00
O2       0.42033    0.59507    0.10517   1.00
O2       0.32870    0.54640    0.06590   1.00
O2       0.45920    0.68590    0.06630   1.00
O2       0.17473    0.57967    0.10517   1.00
O2       0.22670    0.54080    0.06630   1.00
O2       0.21770    0.67130    0.06590   1.00
O2       0.40493    0.82527    0.10517   1.00
O2       0.45360    0.78230    0.06590   1.00
O2       0.31410    0.77330    0.06630   1.00
C1       0.41943    0.60647    0.12337   1.00
C1       0.18703    0.58057    0.12337   1.00
C1       0.39353    0.81297    0.12337   1.00
C1       0.26670    0.52270    0.06030   1.00
C1       0.47730    0.74400    0.06030   1.00
C1       0.25600    0.73330    0.06030   1.00
O1       0.33333    0.66667    0.74137   1.00
Zn1      0.33333    0.66667    0.71227   1.00
Zn1      0.29047    0.71823    0.75023   1.00
Zn1      0.28177    0.57223    0.75023   1.00
Zn1      0.42777    0.70953    0.75023   1.00
O2       0.30723    0.72807    0.70227   1.00
O2       0.27193    0.57917    0.70227   1.00
O2       0.42083    0.69277    0.70227   1.00
O2       0.26173    0.75367    0.72817   1.00
O2       0.21307    0.66203    0.76743   1.00
O2       0.35257    0.79253    0.76703   1.00
O2       0.24633    0.50807    0.72817   1.00
O2       0.20747    0.56003    0.76703   1.00
O2       0.33797    0.55103    0.76743   1.00
O2       0.49193    0.73827    0.72817   1.00
O2       0.44897    0.78693    0.76743   1.00
O2       0.43997    0.64743    0.76703   1.00
C1       0.27313    0.75277    0.70997   1.00
C1       0.24723    0.52037    0.70997   1.00
C1       0.47963    0.72687    0.70997   1.00
C1       0.18937    0.60003    0.77303   1.00
C1       0.41067    0.81063    0.77303   1.00
C1       0.39997    0.58933    0.77303   1.00
C4       0.86057    0.68868    0.50011   1.00
C4       0.83207    0.63140    0.48669   1.00
C3       0.92882    0.74335    0.49876   1.00
C3       0.87059    0.62001    0.47179   1.00
C3       0.81929    0.69148    0.51602   1.00
C3       0.76110    0.58248    0.48804   1.00
C2       0.91540    0.80101    0.52846   1.00
C2       0.77099    0.51348    0.46042   1.00
C3       0.95564    0.79779    0.51261   1.00
C3       0.84080    0.56303    0.45889   1.00
C3       0.84693    0.74748    0.52961   1.00
C3       0.73270    0.52392    0.47549   1.00
H1       0.96098    0.74534    0.48764   1.00
H1       0.92151    0.65255    0.46996   1.00
C5       0.75061    0.63847    0.51822   1.00
C5       0.71893    0.59184    0.50202   1.00
H1       1.00552    0.83564    0.51097   1.00
H1       0.87104    0.55775    0.44828   1.00
H1       0.81616    0.74974    0.54060   1.00
H1       0.68284    0.48721    0.47753   1.00
O3       0.71466    0.63547    0.53542   1.00
O3       0.64867    0.55308    0.50087   1.00
Si1      0.71264    0.58910    0.55467   1.00
Si1      0.60817    0.57710    0.48550   1.00
C6       0.67169    0.61661    0.57190   1.00
C6       0.65929    0.50292    0.54793   1.00
C6       0.79446    0.60974    0.56342   1.00
C6       0.65664    0.65023    0.47036   1.00
C6       0.56279    0.50568    0.46979   1.00
C6       0.54870    0.58714    0.50014   1.00
C6       0.70127    0.69562    0.57315   1.00
H2       0.62118    0.59617    0.56512   1.00
C6       0.65867    0.59113    0.59447   1.00
H2       0.62640    0.50654    0.53650   1.00
C6       0.69221    0.46430    0.53746   1.00
C6       0.60998    0.45236    0.56434   1.00
H2       0.82036    0.66534    0.56432   1.00
C6       0.79931    0.58439    0.58514   1.00
C6       0.84071    0.59190    0.54996   1.00
C6       0.70605    0.71879    0.48129   1.00
C6       0.69648    0.64566    0.45155   1.00
H2       0.61725    0.65830    0.46358   1.00
H2       0.60232    0.50465    0.46059   1.00
C6       0.52518    0.43483    0.48072   1.00
C6       0.51043    0.50702    0.45460   1.00
H2       0.50590    0.53531    0.50184   1.00
C6       0.57070    0.61356    0.52224   1.00
C6       0.51816    0.62994    0.49098   1.00
H2       0.70231    0.71731    0.55826   1.00
H2       0.75319    0.72153    0.57917   1.00
H2       0.66998    0.70800    0.58294   1.00
H2       0.61114    0.58689    0.59997   1.00
H2       0.65456    0.54152    0.59634   1.00
H2       0.69888    0.62652    0.60466   1.00
H2       0.65313    0.41738    0.53027   1.00
H2       0.72766    0.49449    0.52551   1.00
H2       0.71902    0.45013    0.54845   1.00
H2       0.57685    0.46989    0.57063   1.00
H2       0.57616    0.40199    0.55784   1.00
H2       0.63840    0.44573    0.57666   1.00
H2       0.76517    0.52948    0.58665   1.00
H2       0.85103    0.59534    0.58870   1.00
H2       0.78698    0.61041    0.59680   1.00
H2       0.83097    0.54027    0.55275   1.00
H2       0.83441    0.59596    0.53383   1.00
H2       0.89451    0.62676    0.55339   1.00
H2       0.75472    0.72245    0.48489   1.00
H2       0.71709    0.76218    0.47154   1.00
H2       0.68441    0.72533    0.49528   1.00
H2       0.71568    0.69154    0.44220   1.00
H2       0.74038    0.64117    0.45593   1.00
H2       0.66413    0.60284    0.44169   1.00
H2       0.50858    0.39346    0.46967   1.00
H2       0.55883    0.42906    0.49142   1.00
H2       0.48023    0.42742    0.48898   1.00
H2       0.53298    0.55412    0.44580   1.00
H2       0.49305    0.46502    0.44374   1.00
H2       0.46548    0.50146    0.46247   1.00
H2       0.61526    0.66461    0.52262   1.00
H2       0.52959    0.61451    0.53064   1.00
H2       0.58337    0.57972    0.53039   1.00
H2       0.47484    0.62368    0.49999   1.00
H2       0.55593    0.68429    0.49065   1.00
H2       0.49940    0.61383    0.47559   1.00
C4       0.31783    0.17318    0.50250   1.00
C4       0.37377    0.20006    0.48859   1.00
C3       0.31654    0.14005    0.52091   1.00
C3       0.43117    0.19106    0.49079   1.00
C3       0.25917    0.17850    0.49773   1.00
C3       0.37300    0.23834    0.47149   1.00
C2       0.20135    0.11717    0.52932   1.00
C2       0.48416    0.25473    0.45956   1.00
C3       0.25979    0.11247    0.53391   1.00
C3       0.48516    0.21816    0.47679   1.00
C3       0.20295    0.15147    0.51122   1.00
C3       0.42651    0.26271    0.45710   1.00
H1       0.35689    0.13520    0.52546   1.00
H1       0.43525    0.16419    0.50256   1.00
C5       0.25717    0.21104    0.47955   1.00
C5       0.31864    0.25160    0.46873   1.00
H1       0.26157    0.08864    0.54695   1.00
H1       0.52563    0.21054    0.47925   1.00
H1       0.16201    0.15733    0.50788   1.00
H1       0.42309    0.28622    0.44427   1.00
O3       0.19674    0.20611    0.47336   1.00
O3       0.32323    0.29926    0.45476   1.00
Si1      0.14703    0.14584    0.45765   1.00
Si1      0.36051    0.37932    0.46144   1.00
C6       0.07707    0.15975    0.45901   1.00
C6       0.18586    0.16760    0.43354   1.00
C6       0.12457    0.06332    0.46620   1.00
C6       0.39597    0.40161    0.48605   1.00
C6       0.42549    0.41958    0.44332   1.00
C6       0.30126    0.40713    0.45769   1.00
C6       0.05471    0.16759    0.48089   1.00
H2       0.09763    0.20995    0.45201   1.00
C6       0.00893    0.11228    0.44738   1.00
H2       0.21725    0.22294    0.43468   1.00
C6       0.23579    0.14158    0.42756   1.00
C6       0.13968    0.15403    0.41446   1.00
H2       0.10951    0.06419    0.48189   1.00
C6       0.06178    0.00156    0.45583   1.00
C6       0.18027    0.04129    0.46692   1.00
C6       0.34795    0.36633    0.50458   1.00
C6       0.46433    0.40280    0.49082   1.00
H2       0.40998    0.45517    0.48705   1.00
H2       0.46151    0.40263    0.44717   1.00
C6       0.40467    0.39735    0.42075   1.00
C6       0.46692    0.49930    0.44342   1.00
H2       0.30431    0.41787    0.44146   1.00
C6       0.22494    0.35346    0.46161   1.00
C6       0.31441    0.47404    0.46862   1.00
H2       0.09713    0.20799    0.48936   1.00
H2       0.03526    0.12025    0.48952   1.00
H2       0.01472    0.18120    0.48035   1.00
H2       -0.01471   0.14173    0.44241   1.00
H2       0.01646    0.08876    0.43401   1.00
H2       -0.02852   0.07128    0.45697   1.00
H2       0.26693    0.16986    0.41450   1.00
H2       0.27125    0.14875    0.43972   1.00
H2       0.20798    0.08769    0.42342   1.00
H2       0.10933    0.17905    0.41580   1.00
H2       0.17032    0.17449    0.40070   1.00
H2       0.10559    0.09945    0.41211   1.00
H2       0.06760    0.00341    0.43936   1.00
H2       0.05460    -0.04747   0.46107   1.00
H2       0.01456    0.00055    0.45958   1.00
H2       0.18453    0.01996    0.45252   1.00
H2       0.23073    0.08264    0.47066   1.00
H2       0.16696    0.00190    0.47847   1.00
H2       0.34229    0.31655    0.50775   1.00
H2       0.36890    0.39718    0.51827   1.00
H2       0.29737    0.35971    0.50231   1.00
H2       0.48447    0.42660    0.50556   1.00
H2       0.45778    0.35186    0.49146   1.00
H2       0.50398    0.43251    0.47973   1.00
H2       0.45006    0.41600    0.41120   1.00
H2       0.37638    0.34185    0.41925   1.00
H2       0.37332    0.41721    0.41459   1.00
H2       0.48541    0.51950    0.45857   1.00
H2       0.51177    0.51795    0.43362   1.00
H2       0.43631    0.52083    0.43780   1.00
H2       0.21559    0.33642    0.47735   1.00
H2       0.19132    0.37348    0.45781   1.00
H2       0.20993    0.30904    0.45211   1.00
H2       0.28053    0.49139    0.46271   1.00
H2       0.30543    0.46617    0.48494   1.00
H2       0.36641    0.51562    0.46628   1.00
C4       0.82802    0.14565    0.50243   1.00
C4       0.80096    0.17443    0.48848   1.00
C3       0.87344    0.18307    0.51842   1.00
C3       0.82138    0.24480    0.48798   1.00
C3       0.80980    0.07585    0.50022   1.00
C3       0.75050    0.13095    0.47420   1.00
C2       0.88316    0.08465    0.52937   1.00
C2       0.74494    0.22896    0.45951   1.00
C3       0.90058    0.15357    0.53146   1.00
C3       0.79371    0.27124    0.47402   1.00
C3       0.83673    0.04669    0.51376   1.00
C3       0.72541    0.15910    0.45970   1.00
H1       0.88795    0.23280    0.52111   1.00
H1       0.85727    0.27898    0.49766   1.00
C5       0.76459    0.03556    0.48455   1.00
C5       0.72575    0.05978    0.47431   1.00
H1       0.93358    0.18328    0.54266   1.00
H1       0.80997    0.32245    0.47448   1.00
H1       0.82173    -0.00393   0.51234   1.00
H1       0.69258    0.12803    0.44875   1.00
O3       0.75611    -0.02783   0.48034   1.00
O3       0.66805    0.01538    0.46351   1.00
Si1      0.80253    -0.03593   0.46281   1.00
Si1      0.59341    -0.01194   0.47390   1.00
C6       0.77685    -0.12218   0.46758   1.00
C6       0.77217    -0.02621   0.43914   1.00
C6       0.89101    0.01731    0.46668   1.00
C6       0.58990    0.01906    0.49822   1.00
C6       0.55128    0.01249    0.45635   1.00
C6       0.55187    -0.10168   0.47416   1.00
C6       0.77738    -0.14158   0.49039   1.00
H2       0.72315    -0.14815   0.46321   1.00
C6       0.80898    -0.15912   0.45557   1.00
H2       0.71951    -0.04091   0.44270   1.00
C6       0.80464    0.04693    0.42977   1.00
C6       0.76782    -0.07348   0.42119   1.00
H2       0.89658    0.00862    0.48270   1.00
C6       0.93989    -0.00066   0.45479   1.00
C6       0.92409    0.09658    0.46395   1.00
C6       0.62983    0.00855    0.51587   1.00
C6       0.60286    0.09349    0.50050   1.00
H2       0.53614    -0.01269   0.50216   1.00
H2       0.57748    0.06790    0.45772   1.00
C6       0.55835    -0.00188   0.43350   1.00
C6       0.47392    -0.01353   0.46010   1.00
H2       0.53170    -0.11634   0.45880   1.00
C6       0.59813    -0.13379   0.47731   1.00
C6       0.48954    -0.14096   0.48875   1.00
H2       0.74660    -0.12751   0.49978   1.00
H2       0.82917    -0.11611   0.49651   1.00
H2       0.75594    -0.19656   0.49219   1.00
H2       0.77099    -0.21292   0.45344   1.00
H2       0.82746    -0.13730   0.44064   1.00
H2       0.85160    -0.15795   0.46368   1.00
H2       0.77244    0.04844    0.41764   1.00
H2       0.80999    0.08479    0.44089   1.00
H2       0.85464    0.06260    0.42323   1.00
H2       0.73701    -0.12725   0.42523   1.00
H2       0.74340    -0.06598   0.40789   1.00
H2       0.81852    -0.06297   0.41660   1.00
H2       0.92945    -0.00465   0.43852   1.00
H2       0.99359    0.03764    0.45702   1.00
H2       0.93519    -0.04822   0.46012   1.00
H2       0.93911    0.11244    0.44827   1.00
H2       0.89093    0.11593    0.46846   1.00
H2       0.97018    0.12312    0.47322   1.00
H2       0.68339    0.04806    0.51597   1.00
H2       0.60855    0.01083    0.53055   1.00
H2       0.62705    -0.04079   0.51505   1.00
H2       0.58951    0.10166    0.51579   1.00
H2       0.65604    0.13174    0.49807   1.00
H2       0.57169    0.10384    0.49010   1.00
H2       0.54075    0.02516    0.42368   1.00
H2       0.61148    0.01607    0.42946   1.00
H2       0.52854    -0.05607   0.42987   1.00
H2       0.46434    -0.00372   0.47561   1.00
H2       0.45608    0.01280    0.45006   1.00
H2       0.44277    -0.06811   0.45708   1.00
H2       0.62364    -0.12054   0.49200   1.00
H2       0.56911    -0.18932   0.47608   1.00
H2       0.63717    -0.11558   0.46564   1.00
H2       0.46210    -0.19551   0.48529   1.00
H2       0.50574    -0.13512   0.50459   1.00
H2       0.45292    -0.12333   0.48724   1.00
C4       0.68864    0.86067    -0.00012   1.00
C4       0.63136    0.83214    0.01330   1.00
C3       0.74251    0.92939    0.00093   1.00
C3       0.61909    0.87095    0.02787   1.00
C3       0.69230    0.81891    -0.01572   1.00
C3       0.58336    0.76084    0.01228   1.00
C2       0.80102    0.91546    -0.02846   1.00
C2       0.51347    0.77093    0.03958   1.00
C3       0.79696    0.95618    -0.01291   1.00
C3       0.56212    0.84111    0.04078   1.00
C3       0.74832    0.84655    -0.02930   1.00
C3       0.52478    0.73233    0.02483   1.00
H1       0.74387    0.96194    0.01183   1.00
H1       0.65093    0.92210    0.02945   1.00
C5       0.64014    0.74974    -0.01761   1.00
C5       0.59367    0.71844    -0.00136   1.00
H1       0.83419    1.00639    -0.01149   1.00
H1       0.55618    0.87157    0.05115   1.00
H1       0.75122    0.81548    -0.04006   1.00
H1       0.48870    0.68213    0.02301   1.00
O3       0.63784    0.71306    -0.03457   1.00
O3       0.55591    0.64820    0.00016   1.00
Si1      0.59108    0.70898    -0.05396   1.00
Si1      0.58094    0.60952    0.01591   1.00
C6       0.61968    0.66795    -0.07079   1.00
C6       0.50510    0.65488    -0.04715   1.00
C6       0.61032    0.78984    -0.06322   1.00
C6       0.65381    0.65986    0.03096   1.00
C6       0.50971    0.56415    0.03168   1.00
C6       0.59226    0.54998    0.00173   1.00
C6       0.69888    0.69871    -0.07197   1.00
H2       0.60003    0.61796    -0.06372   1.00
C6       0.59423    0.65320    -0.09336   1.00
H2       0.50940    0.62308    -0.03547   1.00
C6       0.46545    0.68732    -0.03706   1.00
C6       0.45504    0.60408    -0.06338   1.00
H2       0.66595    0.81653    -0.06411   1.00
C6       0.58466    0.79282    -0.08507   1.00
C6       0.59138    0.83608    -0.05016   1.00
C6       0.72207    0.70947    0.01991   1.00
C6       0.64839    0.70034    0.04945   1.00
H2       0.66272    0.62144    0.03804   1.00
H2       0.50788    0.60380    0.04059   1.00
C6       0.43892    0.52486    0.02077   1.00
C6       0.51208    0.51326    0.04725   1.00
H2       0.54078    0.50648    0.00015   1.00
C6       0.61854    0.57094    -0.02042   1.00
C6       0.63607    0.52115    0.01127   1.00
H2       0.72074    0.70108    -0.05702   1.00
H2       0.72402    0.75026    -0.07827   1.00
H2       0.71201    0.66740    -0.08148   1.00
H2       0.59090    0.60573    -0.09853   1.00
H2       0.54423    0.64803    -0.09537   1.00
H2       0.62919    0.69308    -0.10371   1.00
H2       0.41884    0.64815    -0.02976   1.00
H2       0.49523    0.72374    -0.02526   1.00
H2       0.45062    0.71292    -0.04829   1.00
H2       0.47341    0.57125    -0.06937   1.00
H2       0.40485    0.56999    -0.05682   1.00
H2       0.44781    0.63133    -0.07593   1.00
H2       0.52988    0.75786    -0.08653   1.00
H2       0.59469    0.84402    -0.08896   1.00
H2       0.61118    0.78043    -0.09654   1.00
H2       0.53944    0.82525    -0.05307   1.00
H2       0.59558    0.83091    -0.03397   1.00
H2       0.62552    0.88982    -0.05386   1.00
H2       0.72481    0.75750    0.01598   1.00
H2       0.76566    0.72184    0.02974   1.00
H2       0.72912    0.68733    0.00611   1.00
H2       0.69433    0.72082    0.05883   1.00
H2       0.64299    0.74344    0.04475   1.00
H2       0.60578    0.66807    0.05939   1.00
H2       0.39746    0.50827    0.03179   1.00
H2       0.43245    0.55739    0.00981   1.00
H2       0.43234    0.47971    0.01281   1.00
H2       0.55918    0.53705    0.05606   1.00
H2       0.47000    0.49589    0.05808   1.00
H2       0.50736    0.46819    0.03968   1.00
H2       0.66921    0.61603    -0.02095   1.00
H2       0.62031    0.52976    -0.02852   1.00
H2       0.58413    0.58231    -0.02879   1.00
H2       0.63061    0.47760    0.00255   1.00
H2       0.69021    0.55963    0.01152   1.00
H2       0.62016    0.50320    0.02673   1.00
C4       0.17317    0.31783    -0.00250   1.00
C4       0.20006    0.37377    0.01141   1.00
C3       0.14000    0.31652    -0.02091   1.00
C3       0.19101    0.43115    0.00922   1.00
C3       0.17854    0.25919    0.00227   1.00
C3       0.23838    0.37302    0.02850   1.00
C2       0.11717    0.20135    -0.02932   1.00
C2       0.25473    0.48416    0.04044   1.00
C3       0.11242    0.25977    -0.03390   1.00
C3       0.21812    0.48514    0.02322   1.00
C3       0.15151    0.20297    -0.01123   1.00
C3       0.26275    0.42653    0.04290   1.00
H1       0.13512    0.35686    -0.02545   1.00
H1       0.16411    0.43521    -0.00255   1.00
C5       0.21113    0.25721    0.02043   1.00
C5       0.25169    0.31869    0.03126   1.00
H1       0.08856    0.26154    -0.04694   1.00
H1       0.21047    0.52559    0.02077   1.00
H1       0.15741    0.16205    -0.00789   1.00
H1       0.28630    0.42313    0.05571   1.00
O3       0.20625    0.19680    0.02662   1.00
O3       0.29939    0.32331    0.04521   1.00
Si1      0.14602    0.14707    0.04234   1.00
Si1      0.37943    0.36063    0.03852   1.00
C6       0.15998    0.07714    0.04097   1.00
C6       0.16780    0.18590    0.06644   1.00
C6       0.06347    0.12456    0.03381   1.00
C6       0.40166    0.39608    0.01391   1.00
C6       0.41970    0.42561    0.05664   1.00
C6       0.40730    0.30141    0.04226   1.00
C6       0.16779    0.05478    0.01908   1.00
H2       0.21019    0.09772    0.04795   1.00
C6       0.11256    0.00899    0.05259   1.00
H2       0.22315    0.21732    0.06530   1.00
C6       0.14176    0.23580    0.07244   1.00
C6       0.15430    0.13972    0.08553   1.00
H2       0.06433    0.10950    0.01811   1.00
C6       0.00176    0.06175    0.04418   1.00
C6       0.04140    0.18023    0.03309   1.00
C6       0.36636    0.34806    -0.00462   1.00
C6       0.40280    0.46443    0.00914   1.00
H2       0.45523    0.41013    0.01289   1.00
H2       0.40271    0.46161    0.05280   1.00
C6       0.39752    0.40479    0.07921   1.00
C6       0.49942    0.46708    0.05653   1.00
H2       0.41807    0.30447    0.05848   1.00
C6       0.35365    0.22509    0.03833   1.00
C6       0.47420    0.31460    0.03131   1.00
H2       0.20816    0.09722    0.01060   1.00
H2       0.12043    0.03531    0.01046   1.00
H2       0.18143    0.01482    0.01962   1.00
H2       0.14204    -0.01462   0.05756   1.00
H2       0.08905    0.01650    0.06597   1.00
H2       0.07155    -0.02847   0.04302   1.00
H2       0.17005    0.26695    0.08549   1.00
H2       0.14889    0.27125    0.06028   1.00
H2       0.08788    0.20796    0.07658   1.00
H2       0.17935    0.10940    0.08418   1.00
H2       0.17477    0.17036    0.09928   1.00
H2       0.09973    0.10561    0.08788   1.00
H2       0.00363    0.06757    0.06065   1.00
H2       -0.04730   0.05454    0.03895   1.00
H2       0.00076    0.01455    0.04042   1.00
H2       0.02009    0.18447    0.04750   1.00
H2       0.08273    0.23070    0.02936   1.00
H2       0.00198    0.16690    0.02156   1.00
H2       0.31657    0.34237    -0.00778   1.00
H2       0.39719    0.36902    -0.01831   1.00
H2       0.35978    0.29749    -0.00236   1.00
H2       0.42657    0.48457    -0.00560   1.00
H2       0.35185    0.45785    0.00851   1.00
H2       0.43251    0.50408    0.02023   1.00
H2       0.41617    0.45017    0.08876   1.00
H2       0.34203    0.37646    0.08072   1.00
H2       0.41742    0.37346    0.08537   1.00
H2       0.51959    0.48557    0.04137   1.00
H2       0.51807    0.51192    0.06632   1.00
H2       0.52098    0.43649    0.06213   1.00
H2       0.33658    0.21573    0.02260   1.00
H2       0.37371    0.19149    0.04214   1.00
H2       0.30924    0.21005    0.04785   1.00
H2       0.49159    0.28074    0.03721   1.00
H2       0.46630    0.30561    0.01499   1.00
H2       0.51576    0.36660    0.03365   1.00
C4       0.14565    0.82802    -0.00243   1.00
C4       0.17443    0.80096    0.01152   1.00
C3       0.18307    0.87344    -0.01842   1.00
C3       0.24480    0.82138    0.01202   1.00
C3       0.07585    0.80980    -0.00022   1.00
C3       0.13095    0.75050    0.02580   1.00
C2       0.08465    0.88316    -0.02937   1.00
C2       0.22896    0.74494    0.04049   1.00
C3       0.15357    0.90058    -0.03146   1.00
C3       0.27124    0.79371    0.02598   1.00
C3       0.04669    0.83673    -0.01376   1.00
C3       0.15910    0.72541    0.04030   1.00
H1       0.23280    0.88795    -0.02111   1.00
H1       0.27898    0.85727    0.00234   1.00
C5       0.03556    0.76459    0.01545   1.00
C5       0.05978    0.72575    0.02569   1.00
H1       0.18328    0.93358    -0.04266   1.00
H1       0.32245    0.80997    0.02552   1.00
H1       -0.00393   0.82173    -0.01234   1.00
H1       0.12803    0.69258    0.05125   1.00
O3       -0.02783   0.75611    0.01966   1.00
O3       0.01538    0.66805    0.03649   1.00
Si1      -0.03593   0.80253    0.03719   1.00
Si1      -0.01194   0.59341    0.02610   1.00
C6       -0.12218   0.77685    0.03242   1.00
C6       -0.02621   0.77217    0.06086   1.00
C6       0.01731    0.89101    0.03332   1.00
C6       0.01906    0.58990    0.00178   1.00
C6       0.01249    0.55128    0.04365   1.00
C6       -0.10168   0.55187    0.02584   1.00
C6       -0.14158   0.77738    0.00961   1.00
H2       -0.14815   0.72315    0.03679   1.00
C6       -0.15912   0.80898    0.04443   1.00
H2       -0.04091   0.71951    0.05730   1.00
C6       0.04693    0.80464    0.07023   1.00
C6       -0.07348   0.76782    0.07881   1.00
H2       0.00862    0.89658    0.01730   1.00
C6       -0.00066   0.93989    0.04521   1.00
C6       0.09658    0.92409    0.03605   1.00
C6       0.00855    0.62983    -0.01587   1.00
C6       0.09349    0.60286    -0.00050   1.00
H2       -0.01269   0.53614    -0.00216   1.00
H2       0.06790    0.57748    0.04228   1.00
C6       -0.00188   0.55835    0.06650   1.00
C6       -0.01353   0.47392    0.03990   1.00
H2       -0.11634   0.53170    0.04120   1.00
C6       -0.13379   0.59813    0.02269   1.00
C6       -0.14096   0.48954    0.01125   1.00
H2       -0.12751   0.74660    0.00022   1.00
H2       -0.11611   0.82917    0.00349   1.00
H2       -0.19656   0.75594    0.00781   1.00
H2       -0.21292   0.77099    0.04656   1.00
H2       -0.13730   0.82746    0.05936   1.00
H2       -0.15795   0.85160    0.03632   1.00
H2       0.04844    0.77244    0.08236   1.00
H2       0.08479    0.80999    0.05911   1.00
H2       0.06260    0.85464    0.07677   1.00
H2       -0.12725   0.73701    0.07477   1.00
H2       -0.06598   0.74340    0.09211   1.00
H2       -0.06297   0.81852    0.08340   1.00
H2       -0.00465   0.92945    0.06148   1.00
H2       0.03764    0.99359    0.04298   1.00
H2       -0.04822   0.93519    0.03988   1.00
H2       0.11244    0.93911    0.05173   1.00
H2       0.11593    0.89093    0.03154   1.00
H2       0.12312    0.97018    0.02678   1.00
H2       0.04806    0.68339    -0.01597   1.00
H2       0.01083    0.60855    -0.03055   1.00
H2       -0.04079   0.62705    -0.01505   1.00
H2       0.10166    0.58951    -0.01579   1.00
H2       0.13174    0.65604    0.00193   1.00
H2       0.10384    0.57169    0.00990   1.00
H2       0.02516    0.54075    0.07632   1.00
H2       0.01607    0.61148    0.07054   1.00
H2       -0.05607   0.52854    0.07013   1.00
H2       -0.00372   0.46434    0.02439   1.00
H2       0.01280    0.45608    0.04994   1.00
H2       -0.06811   0.44277    0.04292   1.00
H2       -0.12054   0.62364    0.00800   1.00
H2       -0.18932   0.56911    0.02392   1.00
H2       -0.11558   0.63717    0.03436   1.00
H2       -0.19551   0.46210    0.01471   1.00
H2       -0.13512   0.50574    -0.00459   1.00
H2       -0.12333   0.45292    0.01276   1.00
C4       0.13925    0.31612    0.49814   1.00
C4       0.16781    0.37191    0.51211   1.00
C3       0.07019    0.28288    0.49169   1.00
C3       0.12881    0.39592    0.52241   1.00
C3       0.18136    0.29106    0.49033   1.00
C3       0.23933    0.40614    0.51610   1.00
C2       0.08450    0.20146    0.47064   1.00
C2       0.22911    0.48405    0.54048   1.00
C3       0.04343    0.22689    0.47841   1.00
C3       0.15868    0.45086    0.53606   1.00
C3       0.15372    0.23532    0.47666   1.00
C3       0.26792    0.45948    0.53056   1.00
H1       0.03737    0.29853    0.49639   1.00
H1       0.07750    0.37396    0.52039   1.00
C5       0.25088    0.32201    0.49617   1.00
C5       0.28188    0.38667    0.50580   1.00
H1       -0.00702   0.20459    0.47439   1.00
H1       0.12806    0.46640    0.54293   1.00
H1       0.18501    0.21911    0.47074   1.00
H1       0.31837    0.48056    0.53421   1.00
O3       0.28810    0.29094    0.49137   1.00
O3       0.35207    0.42713    0.50634   1.00
Si1      0.29378    0.23968    0.50766   1.00
Si1      0.38933    0.48975    0.49017   1.00
C6       0.33484    0.20929    0.49148   1.00
C6       0.34845    0.29042    0.52731   1.00
C6       0.21369    0.17284    0.51573   1.00
C6       0.33756    0.50464    0.47326   1.00
C6       0.43470    0.56128    0.50584   1.00
C6       0.44890    0.47694    0.47653   1.00
C6       0.30316    0.18645    0.46978   1.00
H2       0.38440    0.25493    0.48909   1.00
C6       0.35093    0.15278    0.49875   1.00
H2       0.37938    0.33919    0.51966   1.00
C6       0.31640    0.30615    0.54610   1.00
C6       0.40039    0.27101    0.53637   1.00
H2       0.18641    0.15418    0.50138   1.00
C6       0.21216    0.10989    0.52615   1.00
C6       0.16749    0.18930    0.52969   1.00
C6       0.28781    0.44491    0.45911   1.00
C6       0.29661    0.53877    0.48130   1.00
H2       0.37520    0.54310    0.46310   1.00
H2       0.39496    0.56794    0.51299   1.00
C6       0.47528    0.55286    0.52377   1.00
C6       0.48442    0.63057    0.49531   1.00
H2       0.49291    0.49636    0.48663   1.00
C6       0.42874    0.40141    0.47231   1.00
C6       0.47637    0.51581    0.45597   1.00
H2       0.29977    0.22716    0.46195   1.00
H2       0.25193    0.14195    0.47053   1.00
H2       0.33447    0.17335    0.46026   1.00
H2       0.39831    0.16096    0.49182   1.00
H2       0.35691    0.15238    0.51510   1.00
H2       0.31131    0.10166    0.49429   1.00
H2       0.35564    0.34881    0.55484   1.00
H2       0.27926    0.32089    0.54169   1.00
H2       0.29176    0.26228    0.55625   1.00
H2       0.43296    0.26851    0.52460   1.00
H2       0.43467    0.30928    0.54727   1.00
H2       0.37405    0.22209    0.54426   1.00
H2       0.24775    0.12573    0.53887   1.00
H2       0.16139    0.07338    0.53190   1.00
H2       0.22458    0.08124    0.51545   1.00
H2       0.17917    0.18915    0.54575   1.00
H2       0.17180    0.23824    0.52653   1.00
H2       0.11383    0.15074    0.52761   1.00
H2       0.24030    0.41024    0.46681   1.00
H2       0.27440    0.46475    0.44584   1.00
H2       0.31032    0.41538    0.45350   1.00
H2       0.27514    0.55327    0.46868   1.00
H2       0.25415    0.50472    0.49096   1.00
H2       0.32881    0.58547    0.48975   1.00
H2       0.49185    0.59503    0.53452   1.00
H2       0.44361    0.50592    0.53225   1.00
H2       0.52054    0.55206    0.51849   1.00
H2       0.45968    0.64177    0.48289   1.00
H2       0.50179    0.67262    0.50615   1.00
H2       0.52956    0.63077    0.48939   1.00
H2       0.38325    0.37521    0.46288   1.00
H2       0.46994    0.39782    0.46488   1.00
H2       0.41837    0.37380    0.48653   1.00
H2       0.52008    0.51199    0.45062   1.00
H2       0.43735    0.49482    0.44414   1.00
H2       0.49370    0.56999    0.45749   1.00
C4       0.68524    0.82327    0.49864   1.00
C4       0.62930    0.79638    0.51255   1.00
C3       0.73402    0.80138    0.49785   1.00
C3       0.62011    0.74955    0.52824   1.00
C3       0.69400    0.87574    0.48489   1.00
C3       0.57931    0.81691    0.51081   1.00
C2       0.79886    0.88258    0.47076   1.00
C2       0.51563    0.74552    0.54036   1.00
C3       0.78949    0.83045    0.48438   1.00
C3       0.56451    0.72431    0.54165   1.00
C3       0.74958    0.90352    0.47116   1.00
C3       0.52528    0.79313    0.52501   1.00
H1       0.73055    0.76351    0.50699   1.00
H1       0.65375    0.73273    0.53047   1.00
C5       0.64703    0.89993    0.48489   1.00
C5       0.58373    0.86148    0.49504   1.00
H1       0.82342    0.81290    0.48460   1.00
H1       0.56015    0.69010    0.55259   1.00
H1       0.75414    0.93979    0.46100   1.00
H1       0.49239    0.81168    0.52435   1.00
O3       0.66173    0.95782    0.47410   1.00
O3       0.52955    0.87125    0.49060   1.00
Si1      0.69944    1.03199    0.48536   1.00
Si1      0.46962    0.81743    0.47551   1.00
C6       0.71402    1.08223    0.46345   1.00
C6       0.63893    1.03535    0.50142   1.00
C6       0.77686    1.05086    0.49722   1.00
C6       0.47549    0.74728    0.46624   1.00
C6       0.39557    0.78767    0.49026   1.00
C6       0.46396    0.86480    0.45517   1.00
C6       0.74518    1.06421    0.44483   1.00
H2       0.66226    1.06816    0.45887   1.00
C6       0.75411    1.16219    0.46466   1.00
H2       0.59098    0.99917    0.49414   1.00
C6       0.63319    1.01017    0.52382   1.00
C6       0.63778    1.10374    0.50294   1.00
H2       0.80227    1.03800    0.48536   1.00
C6       0.82708    1.12718    0.50291   1.00
C6       0.77548    1.00996    0.51665   1.00
C6       0.54107    0.76222    0.45422   1.00
C6       0.45898    0.68603    0.48071   1.00
H2       0.43426    0.72524    0.45513   1.00
H2       0.40115    0.75644    0.50186   1.00
C6       0.38767    0.84317    0.50217   1.00
C6       0.32566    0.74095    0.47959   1.00
H2       0.43347    0.88586    0.46121   1.00
C6       0.53207    0.92799    0.44819   1.00
C6       0.42691    0.82558    0.43536   1.00
H2       0.71417    1.01058    0.44060   1.00
H2       0.79674    1.07435    0.44812   1.00
H2       0.74770    1.09398    0.43147   1.00
H2       0.73411    1.18328    0.45344   1.00
H2       0.75035    1.18133    0.47944   1.00
H2       0.80827    1.18383    0.46128   1.00
H2       0.58543    1.00115    0.53070   1.00
H2       0.63303    0.96212    0.52475   1.00
H2       0.67491    1.04796    0.53311   1.00
H2       0.63161    1.12101    0.48805   1.00
H2       0.59478    1.09760    0.51211   1.00
H2       0.68442    1.14379    0.50994   1.00
H2       0.80168    1.14801    0.51211   1.00
H2       0.87130    1.13330    0.51142   1.00
H2       0.84812    1.15851    0.48945   1.00
H2       0.76984    1.03290    0.53054   1.00
H2       0.73481    0.95727    0.51655   1.00
H2       0.82333    1.00934    0.51793   1.00
H2       0.58254    0.77051    0.46435   1.00
H2       0.53082    0.71897    0.44451   1.00
H2       0.55907    0.80656    0.44440   1.00
H2       0.45542    0.64302    0.47213   1.00
H2       0.49815    0.69919    0.49218   1.00
H2       0.41010    0.66702    0.48837   1.00
H2       0.34687    0.81921    0.51342   1.00
H2       0.43423    0.87752    0.51045   1.00
H2       0.37539    0.87385    0.49214   1.00
H2       0.32575    0.69923    0.47134   1.00
H2       0.28471    0.71779    0.49083   1.00
H2       0.31270    0.76989    0.46904   1.00
H2       0.56842    0.91376    0.44248   1.00
H2       0.52358    0.95674    0.43637   1.00
H2       0.55567    0.96246    0.46089   1.00
H2       0.41757    0.85830    0.42523   1.00
H2       0.45740    0.80854    0.42703   1.00
H2       0.37739    0.78114    0.43863   1.00
C4       0.17676    0.86193    0.49862   1.00
C4       0.20367    0.83291    0.51253   1.00
C3       0.19956    0.93276    0.49756   1.00
C3       0.25149    0.87085    0.52797   1.00
C3       0.12333    0.81804    0.48515   1.00
C3       0.18209    0.76207    0.51105   1.00
C2       0.11741    0.91625    0.47075   1.00
C2       0.25449    0.77014    0.54037   1.00
C3       0.17047    0.95917    0.48410   1.00
C3       0.27671    0.84051    0.54139   1.00
C3       0.09554    0.84583    0.47142   1.00
C3       0.20590    0.73189    0.52527   1.00
H1       0.23812    0.96727    0.50648   1.00
H1       0.26909    0.92155    0.53000   1.00
C5       0.09821    0.74671    0.48542   1.00
C5       0.13645    0.72155    0.49553   1.00
H1       0.18870    1.01078    0.48411   1.00
H1       0.31167    0.87058    0.55214   1.00
H1       0.05855    0.81396    0.46146   1.00
H1       0.18666    0.68033    0.52482   1.00
O3       0.03956    0.70357    0.47494   1.00
O3       0.12552    0.65704    0.49131   1.00
Si1      -0.03402   0.66858    0.48652   1.00
Si1      0.17805    0.64927    0.47608   1.00
C6       -0.08551   0.63237    0.46485   1.00
C6       -0.03756   0.60506    0.50277   1.00
C6       -0.05121   0.72848    0.49825   1.00
C6       0.24838    0.72431    0.46639   1.00
C6       0.20760    0.60488    0.49087   1.00
C6       0.12920    0.59558    0.45604   1.00
C6       -0.06779   0.68073    0.44605   1.00
H2       -0.07238   0.59394    0.46034   1.00
C6       -0.16539   0.59353    0.46642   1.00
H2       -0.00223   0.59226    0.49542   1.00
C6       -0.01116   0.62535    0.52503   1.00
C6       -0.10643   0.53614    0.50469   1.00
H2       -0.03843   0.76626    0.48625   1.00
C6       -0.12703   0.70368    0.50425   1.00
C6       -0.00905   0.76860    0.51745   1.00
C6       0.23376    0.77499    0.45427   1.00
C6       0.31056    0.76912    0.48054   1.00
H2       0.26937    0.70406    0.45527   1.00
H2       0.23974    0.64205    0.50227   1.00
C6       0.15214    0.54246    0.50313   1.00
C6       0.25304    0.58024    0.48014   1.00
H2       0.10780    0.54427    0.46229   1.00
C6       0.06627    0.60122    0.44923   1.00
C6       0.16715    0.59617    0.43611   1.00
H2       -0.01444   0.70247    0.44159   1.00
H2       -0.07702   0.72280    0.44924   1.00
H2       -0.09842   0.65309    0.43285   1.00
H2       -0.18752   0.55192    0.45539   1.00
H2       -0.18400   0.57149    0.48132   1.00
H2       -0.18651   0.62649    0.46301   1.00
H2       -0.00248   0.58650    0.53200   1.00
H2       0.03731    0.67289    0.52569   1.00
H2       -0.04812   0.63036    0.53442   1.00
H2       -0.12467   0.51207    0.48992   1.00
H2       -0.10046   0.49936    0.51395   1.00
H2       -0.14569   0.54378    0.51179   1.00
H2       -0.14797   0.65788    0.51364   1.00
H2       -0.13208   0.74259    0.51266   1.00
H2       -0.15894   0.69315    0.49091   1.00
H2       -0.03156   0.74085    0.53149   1.00
H2       0.04340    0.77987    0.51716   1.00
H2       -0.00759   0.81751    0.51859   1.00
H2       0.22658    0.80906    0.46432   1.00
H2       0.27670    0.80708    0.44433   1.00
H2       0.18887    0.74867    0.44465   1.00
H2       0.35342    0.80777    0.47172   1.00
H2       0.29850    0.79611    0.49197   1.00
H2       0.32933    0.73909    0.48824   1.00
H2       0.17620    0.52566    0.51436   1.00
H2       0.11868    0.55573    0.51148   1.00
H2       0.12053    0.49917    0.49332   1.00
H2       0.29467    0.62130    0.47164   1.00
H2       0.27628    0.56248    0.49136   1.00
H2       0.22313    0.53795    0.46979   1.00
H2       0.08090    0.65169    0.44333   1.00
H2       0.03656    0.56357    0.43761   1.00
H2       0.03254    0.59145    0.46206   1.00
H2       0.13352    0.55380    0.42620   1.00
H2       0.18440    0.64340    0.42759   1.00
H2       0.21131    0.59050    0.43926   1.00
C4       0.31416    0.14690    1.00117   1.00
C4       0.37135    0.17520    0.98771   1.00
C3       0.30032    0.18642    1.01504   1.00
C3       0.42368    0.24470    0.98808   1.00
C3       0.26846    0.07498    1.00109   1.00
C3       0.37707    0.13217    0.97297   1.00
C2       0.19931    0.08543    1.02858   1.00
C2       0.48620    0.22818    0.96030   1.00
C3       0.24472    0.15654    1.02845   1.00
C3       0.47920    0.27065    0.97463   1.00
C3       0.21194    0.04598    1.01448   1.00
C3       0.43491    0.15866    0.96014   1.00
H1       0.33010    0.23810    1.01576   1.00
H1       0.42322    0.27844    0.99820   1.00
C5       0.27935    0.03255    0.98759   1.00
C5       0.32546    0.06286    0.97120   1.00
H1       0.23756    0.18764    1.03825   1.00
H1       0.51520    0.32147    0.97547   1.00
H1       0.17853    -0.00544   1.01386   1.00
H1       0.44044    0.12624    0.95056   1.00
O3       0.24228    -0.03725   0.98986   1.00
O3       0.32293    0.02415    0.95465   1.00
Si1      0.27318    -0.07607   1.00333   1.00
Si1      0.28485    0.02753    0.93404   1.00
C6       0.19928    -0.15753   1.00327   1.00
C6       0.33928    -0.07571   0.98911   1.00
C6       0.29583    -0.04365   1.02822   1.00
C6       0.25113    0.08307    0.93359   1.00
C6       0.34870    0.05294    0.91551   1.00
C6       0.22047    -0.05639   0.92843   1.00
C6       0.13074    -0.15945   1.00843   1.00
H2       0.19509    -0.17201   0.98731   1.00
C6       0.19676    -0.21840   1.01541   1.00
H2       0.32477    -0.07154   0.97362   1.00
C6       0.41351    -0.01464   0.99192   1.00
C6       0.34642    -0.14097   0.98934   1.00
H2       0.25093    -0.04131   1.03311   1.00
C6       0.30574    -0.08921   1.04419   1.00
C6       0.35893    0.02955    1.03163   1.00
C6       0.19772    0.07362    0.95017   1.00
C6       0.30063    0.16180    0.93154   1.00
H2       0.22294    0.06936    0.91932   1.00
H2       0.38477    0.10589    0.91937   1.00
C6       0.39115    0.01560    0.91585   1.00
C6       0.32753    0.05299    0.89293   1.00
H2       0.24758    -0.07882   0.92092   1.00
C6       0.18445    -0.10372   0.94695   1.00
C6       0.16228    -0.06646   0.91353   1.00
H2       0.12208    -0.12614   0.99840   1.00
H2       0.13061    -0.14340   1.02406   1.00
H2       0.08706    -0.21079   1.00655   1.00
H2       0.16481    -0.26639   1.00742   1.00
H2       0.24673    -0.21333   1.01741   1.00
H2       0.17445    -0.22411   1.03048   1.00
H2       0.44632    -0.01280   0.97947   1.00
H2       0.41529    0.03428    0.99189   1.00
H2       0.43604    -0.01940   1.00602   1.00
H2       0.29925    -0.18604   0.98458   1.00
H2       0.38580    -0.13615   0.97874   1.00
H2       0.36042    -0.14994   1.00441   1.00
H2       0.34214    -0.10396   1.03880   1.00
H2       0.32429    -0.06311   1.05875   1.00
H2       0.25774    -0.13493   1.04765   1.00
H2       0.40651    0.02860    1.03292   1.00
H2       0.36601    0.06523    1.01965   1.00
H2       0.35271    0.05130    1.04574   1.00
H2       0.22223    0.09928    0.96427   1.00
H2       0.16680    0.09550    0.94507   1.00
H2       0.16271    0.02014    0.95354   1.00
H2       0.27196    0.18802    0.92860   1.00
H2       0.33020    0.18406    0.94526   1.00
H2       0.33596    0.17438    0.91888   1.00
H2       0.43639    0.04243    0.90625   1.00
H2       0.40921    0.01441    0.93114   1.00
H2       0.36168    -0.03675   0.91037   1.00
H2       0.29920    0.07996    0.89112   1.00
H2       0.37278    0.07894    0.88329   1.00
H2       0.29642    0.00117    0.88714   1.00
H2       0.15733    -0.08514   0.95625   1.00
H2       0.14821    -0.15575   0.94219   1.00
H2       0.22203    -0.10652   0.95649   1.00
H2       0.13190    -0.11984   0.90888   1.00
H2       0.12775    -0.05192   0.92059   1.00
H2       0.18259    -0.03662   0.89970   1.00
C4       0.82367    0.68598    1.00109   1.00
C4       0.79689    0.62991    0.98723   1.00
C3       0.81174    0.74166    0.99938   1.00
C3       0.76080    0.62695    0.96928   1.00
C3       0.86567    0.68751    1.01746   1.00
C3       0.80620    0.57323    0.99139   1.00
C2       0.88246    0.79909    1.02916   1.00
C2       0.74564    0.51540    0.95972   1.00
C3       0.84061    0.79686    1.01294   1.00
C3       0.73532    0.57100    0.95600   1.00
C3       0.89327    0.74304    1.03121   1.00
C3       0.78266    0.51871    0.97737   1.00
H1       0.78154    0.74362    0.98826   1.00
H1       0.75234    0.66552    0.96527   1.00
C5       0.87958    0.63343    1.02004   1.00
C5       0.83943    0.57145    1.00940   1.00
H1       0.83060    0.83593    1.01086   1.00
H1       0.70910    0.57138    0.94334   1.00
H1       0.92174    0.74253    1.04321   1.00
H1       0.79354    0.48061    0.97991   1.00
O3       0.92883    0.64035    1.03366   1.00
O3       0.83712    0.51211    1.01570   1.00
Si1      1.00692    0.66854    1.02591   1.00
Si1      0.77179    0.45706    1.02896   1.00
C6       1.04400    0.67694    1.05005   1.00
C6       1.00752    0.60272    1.01179   1.00
C6       1.04227    0.74795    1.01338   1.00
C6       0.70545    0.47478    1.03389   1.00
C6       0.73983    0.38204    1.01455   1.00
C6       0.80370    0.44420    1.05189   1.00
C6       1.02417    0.71378    1.06658   1.00
H2       1.02064    0.62397    1.05505   1.00
C6       1.12292    0.70711    1.05248   1.00
H2       0.96369    0.55742    1.01808   1.00
C6       0.99460    0.59979    0.98841   1.00
C6       1.06939    0.59059    1.01429   1.00
H2       1.02932    0.77759    1.02368   1.00
C6       1.12172    0.78938    1.01092   1.00
C6       1.01458    0.75228    0.99189   1.00
C6       0.72401    0.54298    1.04495   1.00
C6       0.65465    0.46631    1.01649   1.00
H2       0.67360    0.43455    1.04459   1.00
H2       0.71824    0.39256    1.00118   1.00
C6       0.79394    0.36437    1.00623   1.00
C6       0.68130    0.31504    1.02412   1.00
H2       0.82039    0.40803    1.04792   1.00
C6       0.86833    0.50729    1.06072   1.00
C6       0.75300    0.41148    1.07008   1.00
H2       0.96894    0.68926    1.06842   1.00
H2       1.04336    0.76721    1.06263   1.00
H2       1.04496    0.71223    1.08141   1.00
H2       1.13321    0.68277    1.06526   1.00
H2       1.14647    0.69954    1.03912   1.00
H2       1.14969    0.76173    1.05571   1.00
H2       0.98187    0.54989    0.98230   1.00
H2       0.95192    0.60720    0.98471   1.00
H2       1.03981    0.63810    0.98039   1.00
H2       1.07679    0.58178    1.03012   1.00
H2       1.06110    0.54525    1.00597   1.00
H2       1.11634    0.63389    1.00853   1.00
H2       1.14056    0.75858    1.00370   1.00
H2       1.13857    0.83541    1.00178   1.00
H2       1.14692    0.80739    1.02548   1.00
H2       1.04080    0.74213    0.97966   1.00
H2       0.96054    0.71713    0.98995   1.00
H2       1.02255    0.80352    0.98939   1.00
H2       0.74311    0.58568    1.03441   1.00
H2       0.67893    0.53922    1.05227   1.00
H2       0.76211    0.55555    1.05675   1.00
H2       0.61142    0.46963    1.02255   1.00
H2       0.67837    0.50573    1.00497   1.00
H2       0.63313    0.41677    1.00907   1.00
H2       0.77103    0.32413    0.99477   1.00
H2       0.83637    0.40844    0.99888   1.00
H2       0.81467    0.34673    1.01820   1.00
H2       0.63999    0.32203    1.02983   1.00
H2       0.65908    0.27450    1.01273   1.00
H2       0.70011    0.29695    1.03652   1.00
H2       0.85887    0.54863    1.06462   1.00
H2       0.88711    0.49406    1.07425   1.00
H2       0.90916    0.52663    1.04961   1.00
H2       0.77600    0.39665    1.08219   1.00
H2       0.73881    0.44709    1.07654   1.00
H2       0.70650    0.36544    1.06552   1.00
C4       0.86192    0.17677    1.00139   1.00
C4       0.83290    0.20367    0.98747   1.00
C3       0.93278    0.19968    1.00248   1.00
C3       0.87089    0.25163    0.97207   1.00
C3       0.81801    0.12321    1.01482   1.00
C3       0.76203    0.18196    0.98892   1.00
C2       0.91624    0.11740    1.02925   1.00
C2       0.77015    0.25450    0.95963   1.00
C3       0.95919    0.17059    1.01594   1.00
C3       0.84055    0.27685    0.95865   1.00
C3       0.84580    0.09541    1.02855   1.00
C3       0.73186    0.20577    0.97470   1.00
H1       0.96730    0.23834    0.99359   1.00
H1       0.92162    0.26934    0.97006   1.00
C5       0.74666    0.09796    1.01450   1.00
C5       0.72146    0.13617    1.00440   1.00
H1       1.01081    0.18892    1.01596   1.00
H1       0.87065    0.31191    0.94792   1.00
H1       0.81391    0.05833    1.03848   1.00
H1       0.68028    0.18643    0.97512   1.00
O3       0.70354    0.03921    1.02495   1.00
O3       0.65687    0.12509    1.00860   1.00
Si1      0.66874    -0.03429   1.01332   1.00
Si1      0.64888    0.17744    1.02384   1.00
C6       0.63246    -0.08595   1.03495   1.00
C6       0.60527    -0.03786   0.99705   1.00
C6       0.72882    -0.05125   1.00161   1.00
C6       0.72378    0.24779    1.03359   1.00
C6       0.60447    0.20696    1.00904   1.00
C6       0.59511    0.12839    1.04384   1.00
C6       0.68071    -0.06827   1.05379   1.00
H2       0.59393    -0.07295   1.03945   1.00
C6       0.59376    -0.16582   1.03334   1.00
H2       0.59233    -0.00264   1.00441   1.00
C6       0.62567    -0.01129   0.97480   1.00
C6       0.53644    -0.10679   0.99507   1.00
H2       0.76654    -0.03849   1.01363   1.00
C6       0.70420    -0.12701   0.99557   1.00
C6       0.76902    -0.00892   0.98244   1.00
C6       0.77447    0.23322    1.04572   1.00
C6       0.76860    0.31010    1.01948   1.00
H2       0.70339    0.26864    1.04471   1.00
H2       0.64169    0.23922    0.99767   1.00
C6       0.54219    0.15151    0.99674   1.00
C6       0.57964    0.25222    1.01978   1.00
H2       0.54383    0.10695    1.03756   1.00
C6       0.60084    0.06549    1.05062   1.00
C6       0.59547    0.16616    1.06379   1.00
H2       0.70232    -0.01497   1.05827   1.00
H2       0.72286    -0.07738   1.05061   1.00
H2       0.65302    -0.09901   1.06696   1.00
H2       0.55208    -0.18809   1.04435   1.00
H2       0.57184    -0.18436   1.01843   1.00
H2       0.62678    -0.18686   1.03676   1.00
H2       0.58681    -0.00266   0.96782   1.00
H2       0.67316    0.03724    0.97419   1.00
H2       0.63084    -0.04813   0.96540   1.00
H2       0.51229    -0.12516   1.00982   1.00
H2       0.49966    -0.10084   0.98580   1.00
H2       0.54421    -0.14594   0.98796   1.00
H2       0.65846    -0.14795   0.98615   1.00
H2       0.74322    -0.13190   0.98717   1.00
H2       0.69364    -0.15899   1.00889   1.00
H2       0.74139    -0.03136   0.96838   1.00
H2       0.78019    0.04350    0.98276   1.00
H2       0.81799    -0.00735   0.98132   1.00
H2       0.80866    0.22618    1.03568   1.00
H2       0.80643    0.27611    1.05569   1.00
H2       0.74815    0.18825    1.05531   1.00
H2       0.80714    0.35293    1.02833   1.00
H2       0.79572    0.29818    1.00805   1.00
H2       0.73855    0.32883    1.01178   1.00
H2       0.52540    0.17558    0.98551   1.00
H2       0.55560    0.11817    0.98838   1.00
H2       0.49885    0.11977    1.00652   1.00
H2       0.62059    0.29384    1.02831   1.00
H2       0.56188    0.27548    1.00857   1.00
H2       0.53729    0.22219    1.03011   1.00
H2       0.65129    0.08018    1.05655   1.00
H2       0.56313    0.03566    1.06222   1.00
H2       0.59122    0.03187    1.03778   1.00
H2       0.55307    0.13241    1.07366   1.00
H2       0.64266    0.18343    1.07233   1.00
H2       0.58973    0.21029    1.06065   1.00
C4       0.52168    1.01554    0.83581   1.00
C4       0.49271    0.95963    0.82189   1.00
C3       0.48772    1.01881    0.85352   1.00
C3       0.42469    0.90448    0.82328   1.00
C3       0.58787    1.07211    0.83180   1.00
C3       0.53354    0.95808    0.80564   1.00
C2       0.58234    1.13192    0.86267   1.00
C2       0.43739    0.84923    0.79287   1.00
C3       0.51701    1.07553    0.86652   1.00
C3       0.39795    0.85046    0.80929   1.00
C3       0.61706    1.12829    0.84531   1.00
C3       0.50472    0.90468    0.79120   1.00
H1       0.44081    0.97997    0.85752   1.00
H1       0.39243    0.90214    0.83442   1.00
C5       0.62460    1.07207    0.81436   1.00
C5       0.60267    1.01004    0.80374   1.00
H1       0.48983    1.07525    0.87902   1.00
H1       0.34861    0.81165    0.81115   1.00
H1       0.66535    1.16765    0.84253   1.00
H1       0.53324    0.90657    0.77893   1.00
O3       0.68293    1.13093    0.80873   1.00
O3       0.64654    1.00276    0.79075   1.00
Si1      0.67834    1.18251    0.79232   1.00
Si1      0.68462    0.96206    0.79869   1.00
C6       0.76339    1.24959    0.79472   1.00
C6       0.66375    1.14343    0.76830   1.00
C6       0.62001    1.20908    0.79936   1.00
C6       0.66552    0.92655    0.82334   1.00
C6       0.66006    0.89659    0.78075   1.00
C6       0.77303    1.01792    0.79617   1.00
C6       0.79012    1.27099    0.81697   1.00
H2       0.79211    1.22672    0.78857   1.00
C6       0.78940    1.31834    0.78286   1.00
H2       0.68492    1.10981    0.77025   1.00
C6       0.58835    1.09644    0.76123   1.00
C6       0.70134    1.18888    0.74946   1.00
H2       0.63358    1.22375    0.81521   1.00
C6       0.62647    1.27346    0.78840   1.00
C6       0.54138    1.15631    0.79903   1.00
C6       0.67743    0.97528    0.84161   1.00
C6       0.59567    0.86019    0.82739   1.00
H2       0.70283    0.90990    0.82531   1.00
H2       0.60600    0.86264    0.78384   1.00
C6       0.66384    0.91791    0.75798   1.00
C6       0.69471    0.85184    0.78207   1.00
H2       0.78312    1.01424    0.78016   1.00
C6       0.79871    1.09506    0.79979   1.00
C6       0.82242    1.00141    0.80834   1.00
H2       0.78422    1.22757    0.82581   1.00
H2       0.76275    1.29262    0.82480   1.00
H2       0.84445    1.30899    0.81714   1.00
H2       0.84304    1.33955    0.77876   1.00
H2       0.76122    1.31229    0.76894   1.00
H2       0.78647    1.35708    0.79197   1.00
H2       0.58604    1.06452    0.74846   1.00
H2       0.55677    1.06171    0.77314   1.00
H2       0.56544    1.12648    0.75628   1.00
H2       0.75649    1.21690    0.75165   1.00
H2       0.69210    1.15790    0.73582   1.00
H2       0.68390    1.22507    0.74634   1.00
H2       0.62515    1.26760    0.77194   1.00
H2       0.58545    1.28327    0.79268   1.00
H2       0.67330    1.31935    0.79263   1.00
H2       0.51886    1.15330    0.78415   1.00
H2       0.52897    1.10501    0.80307   1.00
H2       0.51488    1.17155    0.80987   1.00
H2       0.63448    0.98364    0.84380   1.00
H2       0.68341    0.95328    0.85570   1.00
H2       0.72333    1.02471    0.83976   1.00
H2       0.59548    0.83939    0.84239   1.00
H2       0.55296    0.86947    0.82703   1.00
H2       0.58567    0.81995    0.81652   1.00
H2       0.63697    0.87275    0.74835   1.00
H2       0.63941    0.94853    0.75562   1.00
H2       0.71632    0.94715    0.75258   1.00
H2       0.69266    0.83285    0.79741   1.00
H2       0.66844    0.80720    0.77220   1.00
H2       0.74795    0.88026    0.77724   1.00
H2       0.78906    1.10521    0.81524   1.00
H2       0.85327    1.12651    0.79677   1.00
H2       0.77276    1.11210    0.78953   1.00
H2       0.87502    1.03325    0.80317   1.00
H2       0.82117    1.01069    0.82456   1.00
H2       0.80970    0.94857    0.80631   1.00
C4       -0.01569   0.50532    0.83576   1.00
C4       0.04015    0.53237    0.82181   1.00
C3       -0.02368   0.45991    0.85176   1.00
C3       0.09010    0.51197    0.82132   1.00
C3       -0.06729   0.52351    0.83354   1.00
C3       0.04711    0.58282    0.80752   1.00
C2       -0.13184   0.45017    0.86270   1.00
C2       0.15069    0.58839    0.79284   1.00
C3       -0.08032   0.43277    0.86479   1.00
C3       0.14422    0.53964    0.80736   1.00
C3       -0.12339   0.49658    0.84708   1.00
C3       0.10035    0.60791    0.79302   1.00
H1       0.01154    0.44541    0.85445   1.00
H1       0.08840    0.47609    0.83099   1.00
C5       -0.06238   0.56870    0.81787   1.00
C5       0.00067    0.60755    0.80763   1.00
H1       -0.08362   0.39978    0.87599   1.00
H1       0.17917    0.52339    0.80782   1.00
H1       -0.15902   0.51157    0.84566   1.00
H1       0.10210    0.64072    0.78207   1.00
O3       -0.11730   0.57716    0.81365   1.00
O3       0.01396    0.66523    0.79682   1.00
Si1      -0.17182   0.53072    0.79613   1.00
Si1      0.06126    0.73988    0.80720   1.00
C6       -0.23241   0.55638    0.80090   1.00
C6       -0.13174   0.56106    0.77246   1.00
C6       -0.20704   0.44224    0.80001   1.00
C6       0.09578    0.74342    0.83153   1.00
C6       0.12782    0.78201    0.78966   1.00
C6       0.01304    0.78140    0.80746   1.00
C6       -0.25234   0.55587    0.82370   1.00
H2       -0.20468   0.61008    0.79652   1.00
C6       -0.30148   0.52422    0.78888   1.00
H2       -0.09379   0.61373    0.77601   1.00
C6       -0.09106   0.52860    0.76309   1.00
C6       -0.17467   0.56538    0.75451   1.00
H2       -0.22129   0.43669    0.81603   1.00
C6       -0.27388   0.39335    0.78812   1.00
C6       -0.16083   0.40918    0.79729   1.00
C6       0.04534    0.70350    0.84919   1.00
C6       0.15726    0.73049    0.83382   1.00
H2       0.11777    0.79719    0.83547   1.00
H2       0.15704    0.75582    0.79103   1.00
C6       0.10638    0.77491    0.76681   1.00
C6       0.17915    0.85938    0.79340   1.00
H2       0.01855    0.80156    0.79210   1.00
C6       -0.06532   0.73513    0.81061   1.00
C6       0.03608    0.84374    0.82204   1.00
H2       -0.20749   0.58666    0.83309   1.00
H2       -0.27865   0.50408    0.82983   1.00
H2       -0.28589   0.57729    0.82549   1.00
H2       -0.31730   0.56220    0.78675   1.00
H2       -0.29813   0.50574    0.77396   1.00
H2       -0.34292   0.48161    0.79700   1.00
H2       -0.05735   0.56080    0.75097   1.00
H2       -0.05854   0.52327    0.77422   1.00
H2       -0.12538   0.47860    0.75656   1.00
H2       -0.19764   0.59619    0.75854   1.00
H2       -0.14275   0.58980    0.74121   1.00
H2       -0.21485   0.51468    0.74991   1.00
H2       -0.26743   0.40377    0.77185   1.00
H2       -0.28927   0.33965    0.79036   1.00
H2       -0.31676   0.39803    0.79344   1.00
H2       -0.15998   0.39415    0.78161   1.00
H2       -0.10833   0.44235    0.80180   1.00
H2       -0.18037   0.36310    0.80656   1.00
H2       0.03131    0.64995    0.84929   1.00
H2       0.06890    0.72480    0.86386   1.00
H2       -0.00122   0.70627    0.84836   1.00
H2       0.17878    0.74386    0.84910   1.00
H2       0.14235    0.67731    0.83139   1.00
H2       0.19878    0.76165    0.82341   1.00
H2       0.15103    0.79252    0.75699   1.00
H2       0.07121    0.72178    0.76277   1.00
H2       0.08199    0.80471    0.76317   1.00
H2       0.19853    0.86898    0.80891   1.00
H2       0.22333    0.87722    0.78336   1.00
H2       0.15570    0.89051    0.79038   1.00
H2       -0.07759   0.70963    0.82530   1.00
H2       -0.09185   0.76414    0.80938   1.00
H2       -0.08615   0.69608    0.79895   1.00
H2       0.00896    0.87117    0.81858   1.00
H2       0.02572    0.82756    0.83788   1.00
H2       0.09033    0.88038    0.82054   1.00
C4       0.49467    0.47897    0.83576   1.00
C4       0.46761    0.50775    0.82182   1.00
C3       0.53992    0.51633    0.85179   1.00
C3       0.48788    0.57808    0.82136   1.00
C3       0.47664    0.40923    0.83350   1.00
C3       0.41732    0.46431    0.80748   1.00
C2       0.54982    0.41797    0.86270   1.00
C2       0.41162    0.56230    0.79284   1.00
C3       0.56706    0.48683    0.86483   1.00
C3       0.46021    0.60453    0.80740   1.00
C3       0.50357    0.38007    0.84705   1.00
C3       0.39224    0.49247    0.79298   1.00
H1       0.55429    0.56600    0.85451   1.00
H1       0.52364    0.61223    0.83107   1.00
C5       0.43160    0.36901    0.81779   1.00
C5       0.39273    0.39317    0.80755   1.00
H1       0.59994    0.51649    0.87606   1.00
H1       0.47636    0.65571    0.80789   1.00
H1       0.48870    0.32948    0.84559   1.00
H1       0.35955    0.46145    0.78200   1.00
O3       0.42332    0.30571    0.81355   1.00
O3       0.33516    0.34877    0.79670   1.00
Si1      0.46997    0.29789    0.79604   1.00
Si1      0.26041    0.32119    0.80703   1.00
C6       0.44445    0.21165    0.80076   1.00
C6       0.43974    0.30771    0.77236   1.00
C6       0.55839    0.35126    0.79998   1.00
C6       0.25661    0.35195    0.83137   1.00
C6       0.21831    0.34563    0.78948   1.00
C6       0.21906    0.23146    0.80723   1.00
C6       0.44483    0.19208    0.82355   1.00
H2       0.39078    0.18561    0.79635   1.00
C6       0.47682    0.17494    0.78874   1.00
H2       0.38702    0.29286    0.77588   1.00
C6       0.47214    0.38092    0.76304   1.00
C6       0.43566    0.26064    0.75439   1.00
H2       0.56385    0.34247    0.81600   1.00
C6       0.60748    0.33354    0.78811   1.00
C6       0.59132    0.43054    0.79731   1.00
C6       0.29647    0.34141    0.84904   1.00
C6       0.26936    0.42629    0.83370   1.00
H2       0.20283    0.32006    0.83527   1.00
H2       0.24438    0.40102    0.79089   1.00
C6       0.22562    0.33148    0.76663   1.00
C6       0.14088    0.31940    0.79317   1.00
H2       0.19902    0.21689    0.79186   1.00
C6       0.26544    0.19950    0.81039   1.00
C6       0.15663    0.19195    0.82177   1.00
H2       0.41390    0.20598    0.83294   1.00
H2       0.49658    0.21761    0.82971   1.00
H2       0.42350    0.13711    0.82532   1.00
H2       0.43894    0.12113    0.78657   1.00
H2       0.49539    0.19691    0.77384   1.00
H2       0.51942    0.17615    0.79688   1.00
H2       0.43999    0.38244    0.75090   1.00
H2       0.47729    0.41865    0.77418   1.00
H2       0.52221    0.39676    0.75654   1.00
H2       0.40492    0.20683    0.75838   1.00
H2       0.41130    0.26818    0.74108   1.00
H2       0.48643    0.27131    0.74982   1.00
H2       0.59717    0.32967    0.77183   1.00
H2       0.66113    0.37193    0.79038   1.00
H2       0.60286    0.28599    0.79341   1.00
H2       0.60645    0.44655    0.78164   1.00
H2       0.55803    0.44973    0.80181   1.00
H2       0.63733    0.45709    0.80662   1.00
H2       0.35000    0.38101    0.84919   1.00
H2       0.27504    0.34351    0.86371   1.00
H2       0.29383    0.29214    0.84820   1.00
H2       0.25585    0.43429    0.84898   1.00
H2       0.32253    0.46465    0.83131   1.00
H2       0.23822    0.43663    0.82328   1.00
H2       0.20800    0.35853    0.75681   1.00
H2       0.27880    0.34959    0.76262   1.00
H2       0.19594    0.27732    0.76295   1.00
H2       0.13113    0.32904    0.80869   1.00
H2       0.12302    0.34574    0.78314   1.00
H2       0.10986    0.26483    0.79012   1.00
H2       0.29083    0.21267    0.82510   1.00
H2       0.23654    0.14397    0.80912   1.00
H2       0.30458    0.21788    0.79876   1.00
H2       0.12932    0.13742    0.81827   1.00
H2       0.17270    0.19769    0.83762   1.00
H2       0.11992    0.20947    0.82026   1.00
C4       0.35361    0.19571    0.33259   1.00
C4       0.29629    0.16633    0.34600   1.00
C3       0.37987    0.26105    0.32358   1.00
C3       0.25577    0.19656    0.35026   1.00
C3       0.38628    0.15764    0.32757   1.00
C3       0.27801    0.10330    0.35582   1.00
C2       0.46762    0.25011    0.30485   1.00
C2       0.18021    0.10294    0.37293   1.00
C3       0.43504    0.28738    0.31001   1.00
C3       0.19971    0.16609    0.36350   1.00
C3       0.44269    0.18564    0.31414   1.00
C3       0.21960    0.07201    0.36843   1.00
H1       0.35982    0.29153    0.32668   1.00
H1       0.26553    0.24137    0.34377   1.00
C5       0.36259    0.09199    0.33606   1.00
C5       0.31764    0.07148    0.35290   1.00
H1       0.45150    0.33473    0.30385   1.00
H1       0.17263    0.19057    0.36615   1.00
H1       0.46680    0.15856    0.31111   1.00
H1       0.20464    0.02482    0.37432   1.00
O3       0.38654    0.05098    0.32865   1.00
O3       0.30930    0.01837    0.36519   1.00
Si1      0.34449    -0.00433   0.31081   1.00
Si1      0.34987    0.03602    0.38678   1.00
C6       0.40583    -0.02894   0.30595   1.00
C6       0.27049    -0.07139   0.32194   1.00
C6       0.33004    0.03250    0.28913   1.00
C6       0.40042    0.12261    0.39382   1.00
C6       0.28401    -0.00634   0.40452   1.00
C6       0.39958    -0.00393   0.38664   1.00
C6       0.48120    0.03070    0.30347   1.00
H2       0.40527    -0.05452   0.32005   1.00
C6       0.39499    -0.08085   0.28858   1.00
H2       0.28587    -0.06819   0.33777   1.00
C6       0.20410    -0.06629   0.32220   1.00
C6       0.24675    -0.14628   0.31521   1.00
H2       0.38046    0.07668    0.28640   1.00
C6       0.30967    -0.01029   0.26906   1.00
C6       0.27889    0.06025    0.29040   1.00
C6       0.45850    0.17147    0.37906   1.00
C6       0.36501    0.16287    0.40139   1.00
H2       0.42660    0.11935    0.40731   1.00
H2       0.25768    0.02293    0.40447   1.00
C6       0.22829    -0.08104   0.39898   1.00
C6       0.30499    -0.00803   0.42702   1.00
H2       0.36355    -0.05678   0.39067   1.00
C6       0.42951    -0.00803   0.36574   1.00
C6       0.45955    0.02119    0.40224   1.00
H2       0.49783    0.06458    0.31662   1.00
H2       0.48686    0.06126    0.29001   1.00
H2       0.51650    0.01120    0.30207   1.00
H2       0.41759    -0.11186   0.29291   1.00
H2       0.34152    -0.11550   0.28521   1.00
H2       0.41966    -0.05530   0.27444   1.00
H2       0.16722    -0.10245   0.33306   1.00
H2       0.21406    -0.01600   0.32683   1.00
H2       0.17961    -0.07802   0.30733   1.00
H2       0.28711    -0.15870   0.31730   1.00
H2       0.20358    -0.18317   0.32432   1.00
H2       0.23072    -0.15450   0.29934   1.00
H2       0.26552    -0.06095   0.27143   1.00
H2       0.29713    0.01438    0.25687   1.00
H2       0.35162    -0.01564   0.26323   1.00
H2       0.22651    0.02062    0.28724   1.00
H2       0.27860    0.08182    0.30504   1.00
H2       0.29248    0.10062    0.27918   1.00
H2       0.43926    0.19030    0.36703   1.00
H2       0.49730    0.21607    0.38725   1.00
H2       0.48427    0.14696    0.37208   1.00
H2       0.40261    0.21205    0.40783   1.00
H2       0.33935    0.17356    0.38920   1.00
H2       0.32797    0.13580    0.41337   1.00
H2       0.18414    -0.09867   0.40901   1.00
H2       0.20971    -0.08423   0.38349   1.00
H2       0.24735    -0.11659   0.40039   1.00
H2       0.34252    0.04263    0.43243   1.00
H2       0.26060    -0.02665   0.43701   1.00
H2       0.32595    -0.04192   0.42884   1.00
H2       0.46479    0.04230    0.35963   1.00
H2       0.45616    -0.03696   0.36674   1.00
H2       0.38850    -0.03417   0.35485   1.00
H2       0.47945    -0.01397   0.40278   1.00
H2       0.50176    0.07150    0.39819   1.00
H2       0.44310    0.02393    0.41758   1.00
C4       0.83782    0.64452    0.33326   1.00
C4       0.86670    0.70174    0.34671   1.00
C3       0.84379    0.58559    0.33615   1.00
C3       0.90957    0.70841    0.36332   1.00
C3       0.80172    0.64621    0.31573   1.00
C3       0.85217    0.75556    0.34358   1.00
C2       0.78085    0.53240    0.30484   1.00
C2       0.92439    0.81977    0.37294   1.00
C3       0.81645    0.53122    0.32228   1.00
C3       0.93712    0.76548    0.37619   1.00
C3       0.77341    0.59029    0.30212   1.00
C3       0.88279    0.81396    0.35620   1.00
H1       0.86797    0.58033    0.34846   1.00
H1       0.92239    0.67221    0.36647   1.00
C5       0.79387    0.70361    0.31195   1.00
C5       0.80771    0.75121    0.32778   1.00
H1       0.82279    0.49015    0.32509   1.00
H1       0.96730    0.76727    0.38806   1.00
H1       0.74602    0.59140    0.28991   1.00
H1       0.87540    0.85396    0.35297   1.00
O3       0.76925    0.71014    0.29347   1.00
O3       0.78237    0.79545    0.32694   1.00
Si1      0.82239    0.75364    0.27531   1.00
Si1      0.71427    0.77761    0.34003   1.00
C6       0.76115    0.73204    0.25593   1.00
C6       0.86060    0.84067    0.28176   1.00
C6       0.88004    0.72503    0.26947   1.00
C6       0.67783    0.70374    0.35540   1.00
C6       0.74146    0.85002    0.35538   1.00
C6       0.65320    0.77453    0.32286   1.00
C6       0.70642    0.65447    0.25413   1.00
H2       0.73316    0.75696    0.26107   1.00
C6       0.78327    0.75707    0.23355   1.00
H2       0.82228    0.84109    0.29170   1.00
C6       0.92824    0.87349    0.29434   1.00
C6       0.87305    0.89339    0.26459   1.00
H2       0.84628    0.66988    0.26839   1.00
C6       0.91839    0.74797    0.24866   1.00
C6       0.93736    0.73689    0.28511   1.00
C6       0.65582    0.63365    0.34502   1.00
C6       0.71348    0.70392    0.37579   1.00
H2       0.63036    0.70063    0.36036   1.00
H2       0.77632    0.84675    0.36614   1.00
C6       0.78424    0.92061    0.34458   1.00
C6       0.68610    0.85480    0.36831   1.00
H2       0.66811    0.82796    0.32059   1.00
C6       0.65346    0.74690    0.30122   1.00
C6       0.57681    0.73783    0.32977   1.00
H2       0.67969    0.63421    0.26847   1.00
H2       0.72977    0.62428    0.24968   1.00
H2       0.66755    0.64615    0.24287   1.00
H2       0.74521    0.76624    0.22626   1.00
H2       0.83201    0.80413    0.23264   1.00
H2       0.78714    0.71919    0.22427   1.00
H2       0.93850    0.92204    0.30094   1.00
H2       0.92569    0.84137    0.30697   1.00
H2       0.97178    0.88366    0.28483   1.00
H2       0.82589    0.88048    0.25661   1.00
H2       0.89206    0.94459    0.27079   1.00
H2       0.91064    0.89627    0.25365   1.00
H2       0.94456    0.80335    0.24700   1.00
H2       0.95638    0.73189    0.24698   1.00
H2       0.88357    0.72470    0.23601   1.00
H2       0.98327    0.78645    0.28309   1.00
H2       0.92182    0.73403    0.30078   1.00
H2       0.95220    0.69811    0.28311   1.00
H2       0.69860    0.62475    0.34334   1.00
H2       0.61739    0.59179    0.35419   1.00
H2       0.63346    0.62967    0.33012   1.00
H2       0.68021    0.65882    0.38484   1.00
H2       0.76061    0.70321    0.37332   1.00
H2       0.72483    0.74791    0.38522   1.00
H2       0.80836    0.96151    0.35579   1.00
H2       0.82525    0.92213    0.33544   1.00
H2       0.75282    0.93242    0.33472   1.00
H2       0.65487    0.80817    0.37692   1.00
H2       0.71023    0.89639    0.37932   1.00
H2       0.65263    0.86488    0.35880   1.00
H2       0.64171    0.69397    0.30151   1.00
H2       0.61694    0.75043    0.29120   1.00
H2       0.70346    0.77717    0.29439   1.00
H2       0.54597    0.74837    0.31921   1.00
H2       0.55502    0.68256    0.33042   1.00
H2       0.57101    0.75529    0.34465   1.00
C4       0.80649    0.16192    0.33325   1.00
C4       0.83488    0.13307    0.34669   1.00
C3       0.74025    0.15316    0.33562   1.00
C3       0.79771    0.08760    0.36271   1.00
C3       0.84567    0.20094    0.31627   1.00
C3       0.90432    0.15037    0.34417   1.00
C2       0.75146    0.21907    0.30485   1.00
C2       0.89549    0.07569    0.37293   1.00
C3       0.71330    0.18060    0.32175   1.00
C3       0.82733    0.06018    0.37559   1.00
C3       0.81805    0.22927    0.30267   1.00
C3       0.93231    0.11990    0.35676   1.00
H1       0.70973    0.12679    0.34752   1.00
H1       0.74790    0.07273    0.36541   1.00
C5       0.91228    0.21165    0.31303   1.00
C5       0.94531    0.19745    0.32900   1.00
H1       0.66490    0.17218    0.32416   1.00
H1       0.79817    0.02803    0.38703   1.00
H1       0.84746    0.25872    0.29087   1.00
H1       0.98069    0.12941    0.35394   1.00
O3       0.94527    0.23929    0.29498   1.00
O3       1.01529    0.22510    0.32886   1.00
Si1      0.93979    0.18915    0.27638   1.00
Si1      1.06217    0.29211    0.34279   1.00
C6       0.98007    0.25308    0.25775   1.00
C6       0.99027    0.15284    0.28291   1.00
C6       0.85493    0.13004    0.26950   1.00
C6       1.02070    0.32440    0.35813   1.00
C6       1.10747    0.26536    0.35827   1.00
C6       1.12088    0.35633    0.32650   1.00
C6       0.95482    0.30600    0.25617   1.00
H2       1.03223    0.28192    0.26347   1.00
C6       0.98664    0.23434    0.23525   1.00
H2       1.02700    0.19064    0.29340   1.00
C6       0.95599    0.08369    0.29474   1.00
C6       1.03389    0.14438    0.26596   1.00
H2       0.83191    0.16240    0.26850   1.00
C6       0.84329    0.09449    0.24832   1.00
C6       0.80902    0.07019    0.28438   1.00
C6       0.97210    0.34537    0.34756   1.00
C6       0.98353    0.28556    0.37798   1.00
H2       1.06339    0.37200    0.36375   1.00
H2       1.06872    0.22837    0.36848   1.00
C6       1.13884    0.22591    0.34737   1.00
C6       1.16496    0.32030    0.37202   1.00
H2       1.16101    0.34353    0.32441   1.00
C6       1.09510    0.35768    0.30467   1.00
C6       1.15741    0.43182    0.33424   1.00
H2       0.95860    0.33063    0.27074   1.00
H2       0.90175    0.28159    0.25116   1.00
H2       0.98574    0.34666    0.24542   1.00
H2       1.03411    0.27436    0.22859   1.00
H2       0.98699    0.18667    0.23398   1.00
H2       0.94538    0.23006    0.22565   1.00
H2       0.99461    0.07432    0.30154   1.00
H2       0.92423    0.08344    0.30716   1.00
H2       0.92490    0.04093    0.28468   1.00
H2       1.06786    0.19290    0.25858   1.00
H2       1.06670    0.12626    0.27226   1.00
H2       1.00137    0.10758    0.25451   1.00
H2       0.87430    0.07022    0.24669   1.00
H2       0.78993    0.05538    0.24597   1.00
H2       0.85519    0.13062    0.23601   1.00
H2       0.81482    0.02563    0.28206   1.00
H2       0.81941    0.08394    0.30024   1.00
H2       0.75522    0.05380    0.28187   1.00
H2       0.92138    0.30166    0.34520   1.00
H2       0.96595    0.38171    0.35697   1.00
H2       0.99174    0.36983    0.33296   1.00
H2       0.96904    0.31654    0.38717   1.00
H2       0.93698    0.23784    0.37483   1.00
H2       1.01610    0.27455    0.38757   1.00
H2       1.15554    0.20155    0.35853   1.00
H2       1.10136    0.18534    0.33766   1.00
H2       1.18281    0.25960    0.33806   1.00
H2       1.14697    0.34920    0.38073   1.00
H2       1.18237    0.29598    0.38298   1.00
H2       1.20913    0.35597    0.36308   1.00
H2       1.05264    0.36754    0.30474   1.00
H2       1.13566    0.39626    0.29521   1.00
H2       1.07785    0.30881    0.29735   1.00
H2       1.19962    0.46496    0.32421   1.00
H2       1.12235    0.45176    0.33479   1.00
H2       1.17908    0.43655    0.34932   1.00
C4       0.80791    0.65060    0.83105   1.00
C4       0.83596    0.70637    0.84502   1.00
C3       0.75150    0.63472    0.81823   1.00
C3       0.80664    0.74795    0.84889   1.00
C3       0.83683    0.60730    0.82992   1.00
C3       0.89680    0.72211    0.85578   1.00
C2       0.75205    0.53488    0.80393   1.00
C2       0.89490    0.81729    0.87385   1.00
C3       0.72406    0.57825    0.80513   1.00
C3       0.83563    0.80228    0.86276   1.00
C3       0.80921    0.55133    0.81633   1.00
C3       0.92354    0.77523    0.87033   1.00
H1       0.72884    0.66385    0.81799   1.00
H1       0.76315    0.73972    0.84185   1.00
C5       0.89333    0.62035    0.84232   1.00
C5       0.93035    0.68448    0.85213   1.00
H1       0.68292    0.56900    0.79632   1.00
H1       0.81254    0.83098    0.86482   1.00
H1       0.83167    0.52184    0.81528   1.00
H1       0.96458    0.78304    0.87884   1.00
O3       0.91375    0.57247    0.84369   1.00
O3       0.99565    0.70699    0.85921   1.00
Si1      0.88443    0.51617    0.86194   1.00
Si1      1.06027    0.76202    0.84572   1.00
C6       0.91838    0.46569    0.85310   1.00
C6       0.92449    0.55879    0.88458   1.00
C6       0.79449    0.46890    0.86291   1.00
C6       1.04342    0.79252    0.82302   1.00
C6       1.10468    0.83026    0.86259   1.00
C6       1.11171    0.72567    0.84068   1.00
C6       0.90704    0.44644    0.83002   1.00
H2       0.97318    0.50021    0.85474   1.00
C6       0.90309    0.39843    0.86438   1.00
H2       0.97166    0.60195    0.87893   1.00
C6       0.88943    0.59038    0.89762   1.00
C6       0.94706    0.52174    0.90017   1.00
H2       0.78109    0.45426    0.84705   1.00
C6       0.76112    0.40077    0.87532   1.00
C6       0.75382    0.50503    0.86969   1.00
C6       0.99866    0.73920    0.80652   1.00
C6       1.01840    0.84564    0.82409   1.00
H2       1.09410    0.82145    0.81628   1.00
H2       1.07148    0.85203    0.86421   1.00
C6       1.11474    0.81087    0.88461   1.00
C6       1.17560    0.88975    0.85556   1.00
H2       1.14152    0.73492    0.85453   1.00
C6       1.07371    0.64682    0.83773   1.00
C6       1.16470    0.75647    0.82297   1.00
H2       0.92643    0.49173    0.82045   1.00
H2       0.85294    0.41343    0.82659   1.00
H2       0.93396    0.41977    0.82546   1.00
H2       0.94701    0.39083    0.86321   1.00
H2       0.89225    0.39904    0.88042   1.00
H2       0.85989    0.35326    0.85777   1.00
H2       0.92536    0.62698    0.90857   1.00
H2       0.87169    0.61823    0.88837   1.00
H2       0.84631    0.55112    0.90614   1.00
H2       0.98078    0.50612    0.89318   1.00
H2       0.97580    0.55544    0.91275   1.00
H2       0.90296    0.47697    0.90661   1.00
H2       0.78107    0.40923    0.89078   1.00
H2       0.70563    0.37750    0.87626   1.00
H2       0.76973    0.36262    0.86810   1.00
H2       0.74749    0.50401    0.88613   1.00
H2       0.77749    0.55790    0.86504   1.00
H2       0.70270    0.47896    0.86305   1.00
H2       0.94442    0.71728    0.80959   1.00
H2       1.00824    0.76338    0.79159   1.00
H2       1.00964    0.69771    0.80530   1.00
H2       1.01959    0.86658    0.80904   1.00
H2       0.96626    0.82313    0.82958   1.00
H2       1.05092    0.88902    0.83375   1.00
H2       1.13210    0.85471    0.89476   1.00
H2       1.06692    0.77017    0.89088   1.00
H2       1.15235    0.79421    0.88514   1.00
H2       1.17302    0.90809    0.84047   1.00
H2       1.19342    0.93321    0.86589   1.00
H2       1.21408    0.87412    0.85543   1.00
H2       1.03977    0.63058    0.82463   1.00
H2       1.10935    0.62796    0.83587   1.00
H2       1.04310    0.62188    0.85104   1.00
H2       1.20015    0.73692    0.82339   1.00
H2       1.13957    0.74352    0.80818   1.00
H2       1.19544    0.81182    0.82403   1.00
C4       0.35157    0.16554    0.83182   1.00
C4       0.29453    0.13650    0.84533   1.00
C3       0.35653    0.20592    0.81472   1.00
C3       0.23420    0.13971    0.84207   1.00
C3       0.40656    0.15297    0.83526   1.00
C3       0.29739    0.10235    0.86318   1.00
C2       0.46706    0.21961    0.80464   1.00
C2       0.18077    0.07515    0.87314   1.00
C3       0.41247    0.23191    0.80144   1.00
C3       0.17913    0.11045    0.85568   1.00
C3       0.46314    0.18071    0.82190   1.00
C3       0.24020    0.07070    0.87625   1.00
H1       0.31975    0.21784    0.81147   1.00
H1       0.22832    0.16303    0.82965   1.00
C5       0.40481    0.11302    0.85208   1.00
C5       0.35696    0.09939    0.86783   1.00
H1       0.41303    0.26036    0.78924   1.00
H1       0.13704    0.11487    0.85264   1.00
H1       0.50307    0.17285    0.82488   1.00
H1       0.24137    0.04274    0.88826   1.00
O3       0.45190    0.09159    0.85346   1.00
O3       0.36611    0.07889    0.88675   1.00
Si1      0.43341    0.01698    0.84455   1.00
Si1      0.39776    0.13513    0.90495   1.00
C6       0.51522    0.02651    0.84747   1.00
C6       0.37418    -0.04511   0.86129   1.00
C6       0.40830    0.00546    0.81884   1.00
C6       0.41612    0.21924    0.89977   1.00
C6       0.33514    0.09954    0.92393   1.00
C6       0.47134    0.13565    0.91388   1.00
C6       0.57636    0.09535    0.83959   1.00
H2       0.52091    0.02821    0.86394   1.00
C6       0.53061    -0.03032   0.84005   1.00
H2       0.38519    -0.01660   0.87546   1.00
C6       0.29640    -0.07414   0.85723   1.00
C6       0.38123    -0.10890   0.86625   1.00
H2       0.44772    0.05273    0.81193   1.00
C6       0.40984    -0.05391   0.80708   1.00
C6       0.33790    -0.00159   0.81280   1.00
C6       0.46614    0.25849    0.88197   1.00
C6       0.35625    0.23485    0.89807   1.00
H2       0.44291    0.24637    0.91350   1.00
H2       0.29274    0.10388    0.91778   1.00
C6       0.30536    0.02171    0.92823   1.00
C6       0.35243    0.13593    0.94503   1.00
H2       0.45157    0.09184    0.92407   1.00
C6       0.51390    0.12257    0.89777   1.00
C6       0.52382    0.19850    0.92663   1.00
H2       0.57659    0.13928    0.84651   1.00
H2       0.57414    0.09984    0.82313   1.00
H2       0.62526    0.09936    0.84335   1.00
H2       0.56812    -0.03235   0.85004   1.00
H2       0.48563    -0.08084   0.83991   1.00
H2       0.55237    -0.02035   0.82481   1.00
H2       0.26635    -0.10028   0.87068   1.00
H2       0.28484    -0.03407   0.85369   1.00
H2       0.27836    -0.11093   0.84481   1.00
H2       0.43176    -0.09403   0.87220   1.00
H2       0.34489    -0.14065   0.87795   1.00
H2       0.37163    -0.14071   0.85283   1.00
H2       0.38043    -0.10239   0.81504   1.00
H2       0.38903    -0.06022   0.79174   1.00
H2       0.46172    -0.04366   0.80502   1.00
H2       0.29621    -0.05426   0.81369   1.00
H2       0.32365    0.02865    0.82214   1.00
H2       0.33980    0.01525    0.79714   1.00
H2       0.44014    0.24567    0.86737   1.00
H2       0.48864    0.31354    0.88396   1.00
H2       0.50815    0.24817    0.88114   1.00
H2       0.37599    0.28990    0.89772   1.00
H2       0.32645    0.21392    0.88431   1.00
H2       0.32176    0.21534    0.91102   1.00
H2       0.25940    0.00193    0.93757   1.00
H2       0.29059    -0.00793   0.91419   1.00
H2       0.34171    0.01176    0.93621   1.00
H2       0.37180    0.19058    0.94355   1.00
H2       0.30664    0.11541    0.95448   1.00
H2       0.39011    0.12838    0.95320   1.00
H2       0.53458    0.16202    0.88612   1.00
H2       0.55621    0.11973    0.90471   1.00
H2       0.48191    0.07405    0.89031   1.00
H2       0.56124    0.18815    0.93383   1.00
H2       0.55173    0.24379    0.91715   1.00
H2       0.49898    0.21063    0.93879   1.00
C4       0.83411    0.18620    0.83201   1.00
C4       0.86309    0.15804    0.84549   1.00
C3       0.78614    0.14795    0.81664   1.00
C3       0.85178    0.09065    0.84376   1.00
C3       0.85467    0.25676    0.83365   1.00
C3       0.90571    0.19897    0.86169   1.00
C2       0.78046    0.24769    0.80471   1.00
C2       0.92478    0.10536    0.87307   1.00
C3       0.76032    0.17788    0.80329   1.00
C3       0.88124    0.06478    0.85728   1.00
C3       0.82706    0.28570    0.82027   1.00
C3       0.93723    0.17292    0.87462   1.00
H1       0.76837    0.09716    0.81475   1.00
H1       0.82216    0.05851    0.83255   1.00
C5       0.90245    0.29789    0.84869   1.00
C5       0.91718    0.26582    0.86483   1.00
H1       0.72612    0.14779    0.79238   1.00
H1       0.87079    0.01547    0.85540   1.00
H1       0.84084    0.33593    0.82199   1.00
H1       0.97103    0.20430    0.88533   1.00
O3       0.93063    0.36769    0.84808   1.00
O3       0.94663    0.30102    0.88253   1.00
Si1      1.00323    0.41456    0.83651   1.00
Si1      0.89814    0.28825    0.90226   1.00
C6       1.00350    0.49253    0.83795   1.00
C6       1.06770    0.41594    0.85184   1.00
C6       1.00295    0.39004    0.81107   1.00
C6       0.81036    0.22752    0.90026   1.00
C6       0.93536    0.26221    0.92100   1.00
C6       0.90912    0.36804    0.90947   1.00
C6       0.93548    0.48995    0.83165   1.00
H2       1.00846    0.50262    0.85424   1.00
C6       1.06187    0.55894    0.82784   1.00
H2       1.04439    0.40590    0.86686   1.00
C6       1.08784    0.35993    0.84835   1.00
C6       1.13699    0.48436    0.85391   1.00
H2       0.95540    0.38504    0.80532   1.00
C6       1.06082    0.44276    0.79686   1.00
C6       1.00021    0.32064    0.80638   1.00
C6       0.76835    0.23735    0.88311   1.00
C6       0.78673    0.14961    0.90058   1.00
H2       0.79009    0.23517    0.91441   1.00
H2       0.92380    0.21157    0.91605   1.00
C6       1.01496    0.30481    0.92266   1.00
C6       0.90707    0.25383    0.94309   1.00
H2       0.95647    0.39155    0.91817   1.00
C6       0.92158    0.41926    0.89196   1.00
C6       0.85403    0.36908    0.92359   1.00
H2       0.89216    0.45175    0.84037   1.00
H2       0.92445    0.47775    0.81556   1.00
H2       0.93814    0.53882    0.83444   1.00
H2       1.07188    0.60362    0.83681   1.00
H2       1.10959    0.55867    0.82658   1.00
H2       1.04823    0.56721    0.81263   1.00
H2       1.11678    0.35736    0.86127   1.00
H2       1.04336    0.30933    0.84679   1.00
H2       1.11967    0.37091    0.83487   1.00
H2       1.12930    0.52559    0.85929   1.00
H2       1.17044    0.47979    0.86500   1.00
H2       1.16420    0.49921    0.83945   1.00
H2       1.11114    0.45974    0.80337   1.00
H2       1.05940    0.42149    0.78184   1.00
H2       1.05514    0.48695    0.79407   1.00
H2       1.05093    0.32619    0.80599   1.00
H2       0.97047    0.28082    0.81725   1.00
H2       0.97703    0.30156    0.79151   1.00
H2       0.77343    0.21694    0.86867   1.00
H2       0.71407    0.21047    0.88691   1.00
H2       0.78352    0.29072    0.88090   1.00
H2       0.73128    0.11904    0.90212   1.00
H2       0.80018    0.13306    0.88672   1.00
H2       0.80806    0.13606    0.91339   1.00
H2       1.03395    0.27822    0.93214   1.00
H2       1.03908    0.31201    0.90781   1.00
H2       1.03237    0.35496    0.92932   1.00
H2       0.85158    0.22284    0.94349   1.00
H2       0.92690    0.22814    0.95264   1.00
H2       0.92219    0.30320    0.95002   1.00
H2       0.87835    0.40025    0.88160   1.00
H2       0.93185    0.46869    0.89777   1.00
H2       0.96595    0.42822    0.88322   1.00
H2       0.87169    0.42045    0.92944   1.00
H2       0.80631    0.35297    0.91546   1.00
H2       0.84308    0.33596    0.93672   1.00
C4       -0.01804   0.47174    0.33488   1.00
C4       0.03783    0.50060    0.32095   1.00
C3       -0.06115   0.40049    0.33773   1.00
C3       0.05233    0.46127    0.30718   1.00
C3       -0.03274   0.51609    0.34647   1.00
C3       0.08218    0.57275    0.32064   1.00
C2       -0.13205   0.41733    0.36262   1.00
C2       0.15090    0.56294    0.29292   1.00
C3       -0.11682   0.37399    0.35113   1.00
C3       0.10767    0.49149    0.29368   1.00
C3       -0.08837   0.48836    0.36019   1.00
C3       0.13590    0.60240    0.30632   1.00
H1       -0.05323   0.36577    0.33021   1.00
H1       0.02287    0.40956    0.30647   1.00
C5       0.00839    0.58784    0.34435   1.00
C5       0.07241    0.61503    0.33447   1.00
H1       -0.14652   0.32201    0.35246   1.00
H1       0.11603    0.46046    0.28419   1.00
H1       -0.09715   0.52081    0.36881   1.00
H1       0.16449    0.65436    0.30542   1.00
O3       -0.01243   0.62995    0.35290   1.00
O3       0.12187    0.68252    0.33721   1.00
Si1      -0.05616   0.65525    0.33941   1.00
Si1      0.18391    0.70078    0.35310   1.00
C6       -0.07625   0.69429    0.35934   1.00
C6       0.00049    0.71623    0.32194   1.00
C6       -0.13055   0.58732    0.32863   1.00
C6       0.18643    0.63276    0.36545   1.00
C6       0.25709    0.74570    0.33803   1.00
C6       0.18315    0.75785    0.37112   1.00
C6       -0.10376   0.65140    0.37930   1.00
H2       -0.02626   0.73716    0.36329   1.00
C6       -0.12313   0.72600    0.35562   1.00
H2       0.04943    0.73554    0.32961   1.00
C6       0.00937    0.69100    0.30067   1.00
C6       -0.00643   0.78039    0.31747   1.00
H2       -0.15312   0.55288    0.34154   1.00
C6       -0.18638   0.60345    0.32086   1.00
C6       -0.12398   0.54398    0.31108   1.00
C6       0.12299    0.58202    0.37824   1.00
C6       0.20944    0.58816    0.35334   1.00
H2       0.22733    0.65950    0.37647   1.00
H2       0.25582    0.70677    0.32800   1.00
C6       0.25827    0.80132    0.32365   1.00
C6       0.32776    0.77946    0.34901   1.00
H2       0.20937    0.80727    0.36351   1.00
C6       0.11180    0.74746    0.37689   1.00
C6       0.22195    0.76730    0.39160   1.00
H2       -0.06855   0.63565    0.38509   1.00
H2       -0.15313   0.60553    0.37679   1.00
H2       -0.10995   0.68108    0.39134   1.00
H2       -0.10717   0.77050    0.36538   1.00
H2       -0.12150   0.74251    0.34005   1.00
H2       -0.17646   0.69042    0.35930   1.00
H2       0.05530    0.73033    0.29312   1.00
H2       0.01518    0.64624    0.30180   1.00
H2       -0.03389   0.67903    0.29079   1.00
H2       -0.00305   0.80812    0.33136   1.00
H2       0.03477    0.81659    0.30764   1.00
H2       -0.05461   0.76614    0.30988   1.00
H2       -0.16482   0.64620    0.31025   1.00
H2       -0.22828   0.55973    0.31318   1.00
H2       -0.21009   0.61518    0.33336   1.00
H2       -0.12105   0.56630    0.29618   1.00
H2       -0.07973   0.53779    0.31250   1.00
H2       -0.16867   0.49272    0.31094   1.00
H2       0.08344    0.54263    0.36880   1.00
H2       0.13742    0.55605    0.38950   1.00
H2       0.10069    0.60774    0.38650   1.00
H2       0.21760    0.55499    0.36363   1.00
H2       0.17151    0.55522    0.34231   1.00
H2       0.25761    0.61912    0.34543   1.00
H2       0.29955    0.81794    0.31257   1.00
H2       0.21086    0.78142    0.31503   1.00
H2       0.26591    0.84621    0.33200   1.00
H2       0.33237    0.74355    0.35899   1.00
H2       0.36909    0.79701    0.33791   1.00
H2       0.33623    0.82365    0.35794   1.00
H2       0.07930    0.69811    0.38402   1.00
H2       0.11608    0.78722    0.38719   1.00
H2       0.08597    0.75021    0.36336   1.00
H2       0.22660    0.81104    0.40003   1.00
H2       0.19519    0.72240    0.40130   1.00
H2       0.27360    0.77688    0.38912   1.00
C4       0.48992    1.01852    0.33471   1.00
C4       0.46301    0.96259    0.32080   1.00
C3       0.46736    1.06676    0.33569   1.00
C3       0.41546    0.95289    0.30529   1.00
C3       0.54309    1.02785    0.34825   1.00
C3       0.48431    0.91313    0.32235   1.00
C2       0.54926    1.13217    0.36258   1.00
C2       0.41218    0.84898    0.29296   1.00
C3       0.49645    1.12224    0.34916   1.00
C3       0.39023    0.89732    0.29187   1.00
C3       0.57088    1.08343    0.36198   1.00
C3       0.46051    0.85913    0.30813   1.00
H1       0.42898    1.06286    0.32671   1.00
H1       0.39806    0.98613    0.30320   1.00
C5       0.56796    0.98143    0.34805   1.00
C5       0.52966    0.91806    0.33793   1.00
H1       0.47840    1.15577    0.34909   1.00
H1       0.35548    0.89258    0.28107   1.00
H1       0.60767    1.08840    0.37200   1.00
H1       0.47957    0.82666    0.30864   1.00
O3       0.62641    0.99673    0.35862   1.00
O3       0.54028    0.86431    0.34222   1.00
Si1      0.70015    1.03508    0.34712   1.00
Si1      0.48741    0.80412    0.35741   1.00
C6       0.75131    1.05017    0.36886   1.00
C6       0.70365    0.97496    0.33092   1.00
C6       0.71779    1.11226    0.33535   1.00
C6       0.41712    0.80914    0.36698   1.00
C6       0.45780    0.73014    0.34262   1.00
C6       0.53586    0.79905    0.37753   1.00
C6       0.73350    1.08094    0.38761   1.00
H2       0.73793    0.99856    0.37339   1.00
C6       0.83122    1.09096    0.36738   1.00
H2       0.66809    0.92688    0.33825   1.00
C6       0.67758    0.96895    0.30863   1.00
C6       0.77239    0.97461    0.32911   1.00
H2       0.70499    1.13737    0.34732   1.00
C6       0.79376    1.16307    0.32944   1.00
C6       0.67597    1.11040    0.31609   1.00
C6       0.43182    0.87451    0.37908   1.00
C6       0.35519    0.79199    0.35274   1.00
H2       0.39585    0.76790    0.37810   1.00
H2       0.42590    0.73532    0.33117   1.00
C6       0.51327    0.72293    0.33046   1.00
C6       0.41201    0.66011    0.35334   1.00
H2       0.55717    0.76898    0.37133   1.00
C6       0.59886    0.86750    0.38438   1.00
C6       0.49757    0.76177    0.39743   1.00
H2       0.68008    1.04950    0.39201   1.00
H2       0.74298    1.13232    0.38439   1.00
H2       0.76390    1.08381    0.40085   1.00
H2       0.85307    1.07134    0.37847   1.00
H2       0.84997    1.08744    0.35252   1.00
H2       0.85247    1.14505    0.37079   1.00
H2       0.66881    0.92136    0.30168   1.00
H2       0.62921    0.96822    0.30789   1.00
H2       0.71476    1.01085    0.29926   1.00
H2       0.79037    0.96869    0.34391   1.00
H2       0.76638    0.93179    0.31987   1.00
H2       0.81187    1.02144    0.32204   1.00
H2       0.81466    1.13806    0.32010   1.00
H2       0.79909    1.20709    0.32100   1.00
H2       0.82551    1.18436    0.34281   1.00
H2       0.69860    1.10505    0.30209   1.00
H2       0.62346    1.06935    0.31633   1.00
H2       0.67474    1.15796    0.31492   1.00
H2       0.43931    0.91583    0.36901   1.00
H2       0.38880    0.86382    0.38895   1.00
H2       0.47657    0.89293    0.38875   1.00
H2       0.31229    0.78796    0.36150   1.00
H2       0.36754    0.83108    0.34130   1.00
H2       0.33635    0.74317    0.34506   1.00
H2       0.48924    0.68209    0.31922   1.00
H2       0.54697    0.76961    0.32213   1.00
H2       0.54464    0.71109    0.34033   1.00
H2       0.37035    0.65971    0.36177   1.00
H2       0.38879    0.61911    0.34212   1.00
H2       0.44166    0.64756    0.36375   1.00
H2       0.58434    0.90347    0.39023   1.00
H2       0.62831    0.85940    0.39606   1.00
H2       0.63279    0.89136    0.37159   1.00
H2       0.53095    0.75287    0.40739   1.00
H2       0.48037    0.79189    0.40590   1.00
H2       0.45333    0.71203    0.39424   1.00
C4       0.52860    0.51009    0.33471   1.00
C4       0.49958    0.53700    0.32080   1.00
C3       0.59943    0.53287    0.33577   1.00
C3       0.53751    0.58480    0.30536   1.00
C3       0.48471    0.45668    0.34819   1.00
C3       0.42875    0.51544    0.32229   1.00
C2       0.58292    0.45074    0.36258   1.00
C2       0.43681    0.58782    0.29296   1.00
C3       0.62584    0.50378    0.34923   1.00
C3       0.50717    0.61002    0.29194   1.00
C3       0.51251    0.42889    0.36192   1.00
C3       0.39857    0.53925    0.30807   1.00
H1       0.63393    0.57142    0.32684   1.00
H1       0.58821    0.60239    0.30332   1.00
C5       0.41339    0.43158    0.34792   1.00
C5       0.38823    0.46982    0.33781   1.00
H1       0.67745    0.52200    0.34921   1.00
H1       0.53724    0.64496    0.28118   1.00
H1       0.48064    0.39192    0.37188   1.00
H1       0.34701    0.52002    0.30852   1.00
O3       0.37025    0.37294    0.35841   1.00
O3       0.32373    0.45892    0.34204   1.00
Si1      0.33523    0.29935    0.34683   1.00
Si1      0.31600    0.51147    0.35726   1.00
C6       0.29903    0.24788    0.36850   1.00
C6       0.27170    0.29581    0.33059   1.00
C6       0.39510    0.28213    0.33510   1.00
C6       0.39106    0.58180    0.36695   1.00
C6       0.27161    0.54102    0.34247   1.00
C6       0.26232    0.46266    0.37731   1.00
C6       0.34740    0.26562    0.38731   1.00
H2       0.26061    0.26103    0.37302   1.00
C6       0.26017    0.16800    0.36695   1.00
H2       0.25892    0.33116    0.33794   1.00
C6       0.29197    0.32219    0.30832   1.00
C6       0.20276    0.22695    0.32868   1.00
H2       0.43289    0.29490    0.34710   1.00
C6       0.37027    0.20629    0.32911   1.00
C6       0.43521    0.32426    0.31590   1.00
C6       0.44174    0.56718    0.37906   1.00
C6       0.43586    0.64396    0.35278   1.00
H2       0.37083    0.60281    0.37806   1.00
H2       0.30877    0.57315    0.33107   1.00
C6       0.20917    0.48557    0.33022   1.00
C6       0.24700    0.58649    0.35320   1.00
H2       0.21101    0.44126    0.37106   1.00
C6       0.26795    0.39971    0.38412   1.00
C6       0.26294    0.50063    0.39724   1.00
H2       0.36916    0.31896    0.39176   1.00
H2       0.38946    0.25636    0.38411   1.00
H2       0.31977    0.23500    0.40051   1.00
H2       0.21856    0.14589    0.37798   1.00
H2       0.23811    0.14938    0.35205   1.00
H2       0.29311    0.14687    0.37036   1.00
H2       0.25313    0.33087    0.30135   1.00
H2       0.33952    0.37065    0.30766   1.00
H2       0.29696    0.28521    0.29894   1.00
H2       0.17871    0.20873    0.34345   1.00
H2       0.16598    0.23293    0.31942   1.00
H2       0.21038    0.18767    0.32158   1.00
H2       0.32446    0.18536    0.31972   1.00
H2       0.40916    0.20122    0.32069   1.00
H2       0.35975    0.17439    0.34245   1.00
H2       0.40744    0.30175    0.30186   1.00
H2       0.44649    0.37672    0.31618   1.00
H2       0.48411    0.32570    0.31476   1.00
H2       0.47579    0.55997    0.36901   1.00
H2       0.47385    0.61012    0.38899   1.00
H2       0.41542    0.52229    0.38868   1.00
H2       0.47453    0.68682    0.36160   1.00
H2       0.46284    0.63188    0.34135   1.00
H2       0.40584    0.66273    0.34509   1.00
H2       0.19237    0.50962    0.31899   1.00
H2       0.22242    0.45209    0.32187   1.00
H2       0.16588    0.45397    0.34004   1.00
H2       0.28808    0.62813    0.36169   1.00
H2       0.22924    0.60973    0.34198   1.00
H2       0.20471    0.55661    0.36356   1.00
H2       0.31842    0.41434    0.39002   1.00
H2       0.23030    0.37003    0.39575   1.00
H2       0.25815    0.36597    0.37129   1.00
H2       0.22058    0.46702    0.40715   1.00
H2       0.31018    0.51787    0.40575   1.00
H2       0.25729    0.54480    0.39408   1.00
C4       0.18818    0.34891    0.16914   1.00
C4       0.15925    0.29302    0.15522   1.00
C3       0.15332    0.35318    0.18648   1.00
C3       0.09058    0.23899    0.15620   1.00
C3       0.25532    0.40442    0.16551   1.00
C3       0.20082    0.29030    0.13938   1.00
C2       0.24893    0.46524    0.19602   1.00
C2       0.10412    0.18259    0.12620   1.00
C3       0.18266    0.40989    0.19949   1.00
C3       0.06391    0.18495    0.14221   1.00
C3       0.28450    0.46058    0.17903   1.00
C3       0.17215    0.23694    0.12493   1.00
H1       0.10568    0.31511    0.19021   1.00
H1       0.05779    0.23751    0.16703   1.00
C5       0.29297    0.40334    0.14845   1.00
C5       0.27054    0.34107    0.13792   1.00
H1       0.15482    0.41037    0.21172   1.00
H1       0.01405    0.14697    0.14377   1.00
H1       0.33341    0.49915    0.17654   1.00
H1       0.20133    0.23805    0.11294   1.00
O3       0.35256    0.46139    0.14311   1.00
O3       0.31467    0.33247    0.12541   1.00
Si1      0.35083    0.51375    0.12640   1.00
Si1      0.35042    0.29020    0.13393   1.00
C6       0.43630    0.57941    0.12932   1.00
C6       0.33738    0.47450    0.10244   1.00
C6       0.29347    0.54228    0.13273   1.00
C6       0.32856    0.25478    0.15855   1.00
C6       0.32592    0.22449    0.11607   1.00
C6       0.43931    0.34439    0.13201   1.00
C6       0.46138    0.60041    0.15172   1.00
H2       0.46449    0.55544    0.12357   1.00
C6       0.46482    0.64835    0.11738   1.00
H2       0.35716    0.43986    0.10477   1.00
C6       0.26235    0.42892    0.09486   1.00
C6       0.37725    0.51950    0.08376   1.00
H2       0.30593    0.55680    0.14864   1.00
C6       0.30253    0.60733    0.12152   1.00
C6       0.21455    0.49095    0.13187   1.00
C6       0.34011    0.30387    0.17670   1.00
C6       0.25754    0.18944    0.16223   1.00
H2       0.36471    0.23689    0.16098   1.00
H2       0.27144    0.19157    0.11879   1.00
C6       0.33213    0.24595    0.09324   1.00
C6       0.35873    0.17819    0.11796   1.00
H2       0.45049    0.34035    0.11613   1.00
C6       0.46644    0.42186    0.13550   1.00
C6       0.48652    0.32633    0.14476   1.00
H2       0.45362    0.55659    0.16072   1.00
H2       0.43434    0.62309    0.15917   1.00
H2       0.51595    0.63744    0.15225   1.00
H2       0.51862    0.66837    0.11372   1.00
H2       0.43804    0.64296    0.10322   1.00
H2       0.46223    0.68770    0.12627   1.00
H2       0.26027    0.39662    0.08223   1.00
H2       0.22928    0.39461    0.10662   1.00
H2       0.24102    0.45999    0.08953   1.00
H2       0.43220    0.54639    0.08636   1.00
H2       0.36843    0.48833    0.07019   1.00
H2       0.36132    0.55664    0.08029   1.00
H2       0.30244    0.60139    0.10508   1.00
H2       0.26201    0.61839    0.12534   1.00
H2       0.34959    0.65256    0.12599   1.00
H2       0.19351    0.48849    0.11680   1.00
H2       0.20057    0.43931    0.13605   1.00
H2       0.18794    0.50713    0.14237   1.00
H2       0.29783    0.31352    0.17841   1.00
H2       0.34422    0.28144    0.19094   1.00
H2       0.38686    0.35270    0.17506   1.00
H2       0.25553    0.16840    0.17732   1.00
H2       0.21574    0.20001    0.16140   1.00
H2       0.24749    0.14892    0.15147   1.00
H2       0.30521    0.20090    0.08357   1.00
H2       0.30909    0.27764    0.09049   1.00
H2       0.38511    0.27413    0.08823   1.00
H2       0.35490    0.15904    0.13337   1.00
H2       0.33243    0.13366    0.10805   1.00
H2       0.41239    0.20554    0.11353   1.00
H2       0.45592    0.43244    0.15080   1.00
H2       0.52134    0.45224    0.13287   1.00
H2       0.44219    0.43982    0.12491   1.00
H2       0.53968    0.35715    0.13995   1.00
H2       0.48419    0.33580    0.16091   1.00
H2       0.47270    0.27313    0.14286   1.00
C4       0.64447    0.83702    0.16672   1.00
C4       0.70160    0.86600    0.15324   1.00
C3       0.58161    0.83406    0.16241   1.00
C3       0.70374    0.90039    0.13500   1.00
C3       0.65030    0.81029    0.18575   1.00
C3       0.76011    0.86049    0.15806   1.00
C2       0.53252    0.78066    0.19521   1.00
C2       0.81965    0.92458    0.12701   1.00
C3       0.52729    0.80702    0.17630   1.00
C3       0.76087    0.92833    0.12214   1.00
C3       0.59447    0.78207    0.19939   1.00
C3       0.81825    0.89153    0.14535   1.00
H1       0.57335    0.85124    0.14903   1.00
H1       0.66405    0.90653    0.13058   1.00
C5       0.71175    0.81165    0.19099   1.00
C5       0.76062    0.82463    0.17562   1.00
H1       0.48322    0.80668    0.17242   1.00
H1       0.75931    0.95210    0.10906   1.00
H1       0.59873    0.76136    0.21274   1.00
H1       0.86130    0.89091    0.14968   1.00
O3       0.72128    0.79649    0.21053   1.00
O3       0.81037    0.80706    0.17846   1.00
Si1      0.76035    0.85780    0.22704   1.00
Si1      0.80010    0.73701    0.16816   1.00
C6       0.74464    0.80556    0.24855   1.00
C6       0.84767    0.90175    0.22068   1.00
C6       0.72302    0.90968    0.22969   1.00
C6       0.72689    0.68835    0.15307   1.00
C6       0.87351    0.76563    0.15317   1.00
C6       0.80395    0.68644    0.18784   1.00
C6       0.66941    0.74583    0.25123   1.00
H2       0.77445    0.78092    0.24520   1.00
C6       0.76792    0.83741    0.27026   1.00
H2       0.85298    0.86269    0.21254   1.00
C6       0.87431    0.96381    0.20585   1.00
C6       0.90145    0.92621    0.23820   1.00
H2       0.66891    0.87190    0.23117   1.00
C6       0.74215    0.95569    0.24908   1.00
C6       0.72887    0.95844    0.21187   1.00
C6       0.65540    0.66297    0.16294   1.00
C6       0.72314    0.71385    0.13127   1.00
H2       0.72949    0.64222    0.15021   1.00
H2       0.86603    0.79352    0.14089   1.00
C6       0.94258    0.81807    0.16338   1.00
C6       0.88556    0.71027    0.14291   1.00
H2       0.85848    0.70780    0.19049   1.00
C6       0.77433    0.69117    0.20874   1.00
C6       0.77466    0.60862    0.18366   1.00
H2       0.65157    0.71328    0.23780   1.00
H2       0.63461    0.76526    0.25400   1.00
H2       0.66514    0.71297    0.26396   1.00
H2       0.78208    0.80604    0.27936   1.00
H2       0.81162    0.88875    0.26993   1.00
H2       0.72728    0.83963    0.27853   1.00
H2       0.92443    0.97699    0.19982   1.00
H2       0.84098    0.95277    0.19280   1.00
H2       0.87956    1.00887    0.21354   1.00
H2       0.89342    0.88389    0.24796   1.00
H2       0.95329    0.94796    0.23223   1.00
H2       0.89970    0.96537    0.24743   1.00
H2       0.79737    0.98749    0.25066   1.00
H2       0.72052    0.98943    0.24873   1.00
H2       0.72158    0.92520    0.26271   1.00
H2       0.77554    1.00790    0.21282   1.00
H2       0.72805    0.93794    0.19697   1.00
H2       0.68609    0.96802    0.21243   1.00
H2       0.64077    0.70204    0.16253   1.00
H2       0.61609    0.61879    0.15473   1.00
H2       0.65363    0.64728    0.17864   1.00
H2       0.67977    0.67406    0.12288   1.00
H2       0.71660    0.75826    0.13160   1.00
H2       0.76837    0.72642    0.12229   1.00
H2       0.98303    0.84141    0.15200   1.00
H2       0.93900    0.85956    0.17065   1.00
H2       0.95868    0.79412    0.17479   1.00
H2       0.84032    0.67234    0.13484   1.00
H2       0.92672    0.73379    0.13175   1.00
H2       0.90008    0.68408    0.15403   1.00
H2       0.71991    0.67352    0.20792   1.00
H2       0.78231    0.66151    0.22037   1.00
H2       0.80006    0.74373    0.21388   1.00
H2       0.78934    0.58530    0.19571   1.00
H2       0.71900    0.58126    0.18289   1.00
H2       0.79409    0.59998    0.16951   1.00
C4       0.16192    0.80649    0.16675   1.00
C4       0.13307    0.83488    0.15331   1.00
C3       0.15317    0.74025    0.16438   1.00
C3       0.08761    0.79771    0.13729   1.00
C3       0.20093    0.84567    0.18373   1.00
C3       0.15037    0.90432    0.15583   1.00
C2       0.21907    0.75146    0.19515   1.00
C2       0.07569    0.89549    0.12707   1.00
C3       0.18061    0.71331    0.17824   1.00
C3       0.06019    0.82733    0.12441   1.00
C3       0.22926    0.81805    0.19733   1.00
C3       0.11990    0.93231    0.14324   1.00
H1       0.12680    0.70974    0.15248   1.00
H1       0.07274    0.74791    0.13459   1.00
C5       0.21164    0.91227    0.18697   1.00
C5       0.19744    0.94531    0.17100   1.00
H1       0.17219    0.66491    0.17584   1.00
H1       0.02804    0.79817    0.11297   1.00
H1       0.25872    0.84745    0.20913   1.00
H1       0.12940    0.98069    0.14606   1.00
O3       0.23927    0.94526    0.20503   1.00
O3       0.22509    1.01528    0.17115   1.00
Si1      0.18913    0.93977    0.22363   1.00
Si1      0.29210    1.06217    0.15722   1.00
C6       0.25306    0.98005    0.24226   1.00
C6       0.15282    0.99025    0.21710   1.00
C6       0.13002    0.85491    0.23050   1.00
C6       0.32440    1.02071    0.14187   1.00
C6       0.26534    1.10748    0.14174   1.00
C6       0.35631    1.12089    0.17351   1.00
C6       0.30597    0.95481    0.24383   1.00
H2       0.28189    1.03221    0.23653   1.00
C6       0.23430    0.98661    0.26475   1.00
H2       0.19062    1.02698    0.20661   1.00
C6       0.08366    0.95597    0.20526   1.00
C6       0.14435    1.03386    0.23404   1.00
H2       0.16238    0.83189    0.23150   1.00
C6       0.09446    0.84326    0.25168   1.00
C6       0.07017    0.80900    0.21562   1.00
C6       0.34536    0.97211    0.15244   1.00
C6       0.28557    0.98355    0.12202   1.00
H2       0.37200    1.06341    0.13626   1.00
H2       0.22837    1.06872    0.13152   1.00
C6       0.22589    1.13883    0.15263   1.00
C6       0.32029    1.16496    0.12799   1.00
H2       0.34351    1.16100    0.17560   1.00
C6       0.35766    1.09509    0.19534   1.00
C6       0.43180    1.15742    0.16577   1.00
H2       0.33061    0.95859    0.22927   1.00
H2       0.28157    0.90173    0.24884   1.00
H2       0.34663    0.98573    0.25458   1.00
H2       0.27433    1.03408    0.27142   1.00
H2       0.18663    0.98696    0.26602   1.00
H2       0.23003    0.94535    0.27436   1.00
H2       0.07429    0.99459    0.19846   1.00
H2       0.08343    0.92422    0.19284   1.00
H2       0.04090    0.92487    0.21532   1.00
H2       0.19286    1.06784    0.24143   1.00
H2       0.12623    1.06667    0.22775   1.00
H2       0.10755    1.00134    0.24550   1.00
H2       0.07019    0.87427    0.25331   1.00
H2       0.05536    0.78990    0.25403   1.00
H2       0.13059    0.85517    0.26399   1.00
H2       0.02561    0.81480    0.21794   1.00
H2       0.08393    0.81940    0.19976   1.00
H2       0.05379    0.75520    0.21813   1.00
H2       0.30166    0.92139    0.15481   1.00
H2       0.38171    0.96596    0.14304   1.00
H2       0.36983    0.99175    0.16704   1.00
H2       0.31655    0.96906    0.11283   1.00
H2       0.23785    0.93699    0.12517   1.00
H2       0.27455    1.01611    0.11244   1.00
H2       0.20153    1.15554    0.14148   1.00
H2       0.18532    1.10135    0.16235   1.00
H2       0.25957    1.18281    0.16194   1.00
H2       0.34920    1.14699    0.11928   1.00
H2       0.29597    1.18237    0.11703   1.00
H2       0.35595    1.20914    0.13693   1.00
H2       0.36752    1.05264    0.19527   1.00
H2       0.39624    1.13565    0.20480   1.00
H2       0.30878    1.07784    0.20266   1.00
H2       0.46493    1.19962    0.17580   1.00
H2       0.45175    1.12236    0.16521   1.00
H2       0.43654    1.17909    0.15069   1.00
C4       1.01589    0.52054    0.66431   1.00
C4       0.96009    0.49192    0.67827   1.00
C3       1.02827    0.48136    0.64991   1.00
C3       0.91484    0.42075    0.68048   1.00
C3       1.06286    0.59216    0.66485   1.00
C3       0.94820    0.53639    0.69078   1.00
C2       1.13179    0.58176    0.63728   1.00
C2       0.84936    0.43797    0.70718   1.00
C3       1.08481    0.51102    0.63684   1.00
C3       0.86060    0.39451    0.69439   1.00
C3       1.11888    0.62128    0.65128   1.00
C3       0.89505    0.50880    0.70531   1.00
H1       0.99643    0.43017    0.64844   1.00
H1       0.92020    0.38587    0.67213   1.00
C5       1.05342    0.63425    0.67888   1.00
C5       0.98969    0.60808    0.68887   1.00
H1       1.09143    0.48005    0.62684   1.00
H1       0.82916    0.34262    0.69521   1.00
H1       1.15108    0.67299    0.65146   1.00
H1       0.88992    0.54113    0.71503   1.00
O3       1.10448    0.70077    0.68170   1.00
O3       0.97116    0.65172    0.69776   1.00
Si1      1.16039    0.71923    0.69976   1.00
Si1      0.91914    0.66948    0.68563   1.00
C6       1.21525    0.80515    0.69291   1.00
C6       1.11900    0.71306    0.72297   1.00
C6       1.20261    0.67158    0.69845   1.00
C6       0.88657    0.62949    0.66199   1.00
C6       0.85163    0.64493    0.70283   1.00
C6       0.96064    0.75877    0.68293   1.00
C6       1.23458    0.81862    0.66987   1.00
H2       1.18358    0.82805    0.69583   1.00
C6       1.28361    0.85057    0.70469   1.00
H2       1.07789    0.72194    0.71825   1.00
C6       1.08356    0.64289    0.73426   1.00
C6       1.15886    0.76730    0.73982   1.00
H2       1.21694    0.67641    0.68245   1.00
C6       1.27053    0.69889    0.71076   1.00
C6       1.16213    0.59308    0.70326   1.00
C6       0.93860    0.63926    0.64490   1.00
C6       0.82971    0.55249    0.66137   1.00
H2       0.86046    0.65594    0.65653   1.00
H2       0.82661    0.58939    0.70298   1.00
C6       0.87221    0.66748    0.72539   1.00
C6       0.79540    0.66304    0.69728   1.00
H2       0.95314    0.77660    0.69756   1.00
C6       1.03947    0.79605    0.67996   1.00
C6       0.93289    0.78900    0.66659   1.00
H2       1.18924    0.79797    0.66027   1.00
H2       1.26476    0.79551    0.66516   1.00
H2       1.26423    0.87324    0.66665   1.00
H2       1.29475    0.90344    0.70512   1.00
H2       1.28200    0.83416    0.72027   1.00
H2       1.32723    0.85129    0.69737   1.00
H2       1.04823    0.64164    0.74579   1.00
H2       1.05352    0.60061    0.72402   1.00
H2       1.12091    0.63361    0.74191   1.00
H2       1.17761    0.81904    0.73425   1.00
H2       1.12598    0.76095    0.75278   1.00
H2       1.20186    0.76290    0.74546   1.00
H2       1.26309    0.70685    0.72668   1.00
H2       1.29048    0.66375    0.71020   1.00
H2       1.31073    0.74643    0.70447   1.00
H2       1.16254    0.58276    0.71942   1.00
H2       1.10921    0.56816    0.69858   1.00
H2       1.18538    0.56733    0.69534   1.00
H2       0.95723    0.60349    0.64648   1.00
H2       0.91445    0.63031    0.62999   1.00
H2       0.98238    0.69070    0.64472   1.00
H2       0.80829    0.53802    0.64610   1.00
H2       0.84908    0.51875    0.66543   1.00
H2       0.78712    0.54161    0.67138   1.00
H2       0.82802    0.64041    0.73538   1.00
H2       0.91072    0.65540    0.73066   1.00
H2       0.89225    0.72205    0.72745   1.00
H2       0.77639    0.64718    0.68188   1.00
H2       0.75163    0.63674    0.70746   1.00
H2       0.81444    0.71770    0.69869   1.00
H2       1.05389    0.78045    0.66604   1.00
H2       1.06166    0.85139    0.67961   1.00
H2       1.06287    0.78455    0.69258   1.00
H2       0.95576    0.84414    0.66851   1.00
H2       0.94459    0.77982    0.65123   1.00
H2       0.87787    0.76731    0.66780   1.00
C4       0.50536    -0.01568   0.66424   1.00
C4       0.53241    0.04016    0.67818   1.00
C3       0.46036    -0.02341   0.64815   1.00
C3       0.51237    0.09039    0.67858   1.00
C3       0.52313    -0.06756   0.66655   1.00
C3       0.58246    0.04683    0.69258   1.00
C2       0.45019    -0.13184   0.63730   1.00
C2       0.58837    0.15069    0.70716   1.00
C3       0.43320    -0.08006   0.63512   1.00
C3       0.54002    0.14451    0.69254   1.00
C3       0.49620    -0.12365   0.65301   1.00
C3       0.60752    0.10007    0.70708   1.00
H1       0.44617    0.01200    0.64538   1.00
H1       0.47678    0.08892    0.66882   1.00
C5       0.56791    -0.06291   0.68232   1.00
C5       0.60683    0.00010    0.69258   1.00
H1       0.40050    -0.08316   0.62384   1.00
H1       0.52404    0.17966    0.69200   1.00
H1       0.51089    -0.15949   0.65451   1.00
H1       0.64003    0.10163    0.71810   1.00
O3       0.57592    -0.11805   0.68662   1.00
O3       0.66421    0.01307    0.70350   1.00
Si1      0.52895    -0.17245   0.70410   1.00
Si1      0.73912    0.06005    0.69324   1.00
C6       0.55425    -0.23339   0.69945   1.00
C6       0.55899    -0.13244   0.72779   1.00
C6       0.44061    -0.20724   0.70006   1.00
C6       0.74333    0.09466    0.66889   1.00
C6       0.78119    0.12655    0.71081   1.00
C6       0.78021    0.01143    0.69313   1.00
C6       0.55405    -0.25337   0.67667   1.00
H2       0.60786    -0.20591   0.70392   1.00
C6       0.52153    -0.30247   0.71148   1.00
H2       0.61180    -0.09470   0.72432   1.00
C6       0.52670    -0.09144   0.73704   1.00
C6       0.56269    -0.17553   0.74580   1.00
H2       0.43529    -0.22149   0.68404   1.00
C6       0.39122    -0.27398   0.71191   1.00
C6       0.40788    -0.16068   0.70265   1.00
C6       0.70356    0.04431    0.65119   1.00
C6       0.73086    0.15641    0.66649   1.00
H2       0.79714    0.11639    0.66504   1.00
H2       0.75529    0.15603    0.70934   1.00
C6       0.77354    0.10509    0.73366   1.00
C6       0.85871    0.17756    0.70718   1.00
H2       0.80005    0.01682    0.70853   1.00
C6       0.73366    -0.06689   0.68996   1.00
C6       0.84278    0.03415    0.67866   1.00
H2       0.58521    -0.20857   0.66730   1.00
H2       0.50238    -0.27944   0.67046   1.00
H2       0.57523    -0.28716   0.67497   1.00
H2       0.55925    -0.31857   0.71371   1.00
H2       0.50284    -0.29900   0.72635   1.00
H2       0.47895    -0.34378   0.70331   1.00
H2       0.55877    -0.05782   0.74920   1.00
H2       0.52181    -0.05878   0.72587   1.00
H2       0.47652    -0.12555   0.74350   1.00
H2       0.59333    -0.19877   0.74187   1.00
H2       0.58697    -0.14366   0.75912   1.00
H2       0.51180    -0.21552   0.75032   1.00
H2       0.40134    -0.26758   0.72819   1.00
H2       0.33764    -0.28908   0.70957   1.00
H2       0.39572    -0.31701   0.70665   1.00
H2       0.39260    -0.15974   0.71830   1.00
H2       0.44136    -0.10822   0.69816   1.00
H2       0.36200    -0.17999   0.69330   1.00
H2       0.65009    0.03057    0.65098   1.00
H2       0.72522    0.06781    0.63654   1.00
H2       0.70602    -0.00241   0.65207   1.00
H2       0.74461    0.17792    0.65122   1.00
H2       0.67771    0.14178    0.66882   1.00
H2       0.76198    0.19786    0.67693   1.00
H2       0.79118    0.14976    0.74347   1.00
H2       0.72027    0.07014    0.73762   1.00
H2       0.80303    0.08044    0.73739   1.00
H2       0.86869    0.19695    0.69167   1.00
H2       0.87658    0.22176    0.71721   1.00
H2       0.88953    0.15384    0.71030   1.00
H2       0.70845    -0.07903   0.67522   1.00
H2       0.76239    -0.09368   0.69129   1.00
H2       0.69438    -0.08754   0.70155   1.00
H2       0.86989    0.00677    0.68222   1.00
H2       0.82689    0.02387    0.66280   1.00
H2       0.87961    0.08834    0.68019   1.00
C4       0.47897    0.49467    0.66424   1.00
C4       0.50775    0.46761    0.67818   1.00
C3       0.51633    0.53993    0.64821   1.00
C3       0.57809    0.48789    0.67864   1.00
C3       0.40923    0.47663    0.66649   1.00
C3       0.46431    0.41731    0.69252   1.00
C2       0.41797    0.54982    0.63730   1.00
C2       0.56230    0.41162    0.70716   1.00
C3       0.48683    0.56707    0.63518   1.00
C3       0.60454    0.46022    0.69260   1.00
C3       0.38006    0.50356    0.65295   1.00
C3       0.49247    0.39223    0.70701   1.00
H1       0.56601    0.55432    0.64549   1.00
H1       0.61224    0.52366    0.66894   1.00
C5       0.36900    0.43158    0.68220   1.00
C5       0.39316    0.39271    0.69245   1.00
H1       0.51650    0.59996    0.62395   1.00
H1       0.65571    0.47638    0.69212   1.00
H1       0.32948    0.48868    0.65440   1.00
H1       0.46145    0.35953    0.71799   1.00
O3       0.30570    0.42328    0.68644   1.00
O3       0.34876    0.33513    0.70329   1.00
Si1      0.29785    0.46991    0.70395   1.00
Si1      0.32121    0.26039    0.69295   1.00
C6       0.21161    0.44438    0.69923   1.00
C6       0.30767    0.43968    0.72763   1.00
C6       0.35122    0.55834    0.70002   1.00
C6       0.35198    0.25661    0.66862   1.00
C6       0.34564    0.21828    0.71051   1.00
C6       0.23147    0.21902    0.69275   1.00
C6       0.19206    0.44478    0.67643   1.00
H2       0.18558    0.39071    0.70364   1.00
C6       0.17489    0.47674    0.71125   1.00
H2       0.29283    0.38696    0.72411   1.00
C6       0.38087    0.47208    0.73696   1.00
C6       0.26059    0.43558    0.74560   1.00
H2       0.34244    0.56381    0.68400   1.00
C6       0.33349    0.60742    0.71189   1.00
C6       0.43050    0.59128    0.70269   1.00
C6       0.34144    0.29647    0.65095   1.00
C6       0.42632    0.26937    0.66629   1.00
H2       0.32010    0.20283    0.66472   1.00
H2       0.40104    0.24437    0.70910   1.00
C6       0.33148    0.22558    0.73336   1.00
C6       0.31943    0.14086    0.70681   1.00
H2       0.21690    0.19898    0.70812   1.00
C6       0.19950    0.26539    0.68959   1.00
C6       0.19197    0.15660    0.67821   1.00
H2       0.20597    0.41386    0.66705   1.00
H2       0.21758    0.49653    0.67028   1.00
H2       0.13708    0.42344    0.67467   1.00
H2       0.12109    0.43885    0.71342   1.00
H2       0.19685    0.49530    0.72616   1.00
H2       0.17610    0.51934    0.70311   1.00
H2       0.38240    0.43993    0.74909   1.00
H2       0.41862    0.47725    0.72581   1.00
H2       0.39670    0.52215    0.74346   1.00
H2       0.20678    0.40483    0.74161   1.00
H2       0.26813    0.41122    0.75891   1.00
H2       0.27125    0.48635    0.75017   1.00
H2       0.32961    0.59710    0.72816   1.00
H2       0.37186    0.66107    0.70962   1.00
H2       0.28593    0.60280    0.70659   1.00
H2       0.44650    0.60640    0.71836   1.00
H2       0.44970    0.55800    0.69819   1.00
H2       0.45705    0.63730    0.69339   1.00
H2       0.38103    0.35000    0.65081   1.00
H2       0.34355    0.27505    0.63628   1.00
H2       0.29216    0.29382    0.65179   1.00
H2       0.43434    0.25587    0.65101   1.00
H2       0.46468    0.32254    0.66868   1.00
H2       0.43667    0.23823    0.67671   1.00
H2       0.35852    0.20796    0.74317   1.00
H2       0.34958    0.27876    0.73737   1.00
H2       0.27732    0.19589    0.73703   1.00
H2       0.32908    0.13112    0.69130   1.00
H2       0.34576    0.12301    0.71684   1.00
H2       0.26486    0.10984    0.70986   1.00
H2       0.21268    0.29079    0.67488   1.00
H2       0.14398    0.23649    0.69086   1.00
H2       0.21787    0.30453    0.70123   1.00
H2       0.13745    0.12928    0.68171   1.00
H2       0.19773    0.17268    0.66236   1.00
H2       0.20950    0.11990    0.67972   1.00
C4       0.47727    -0.02152   0.16637   1.00
C4       0.50650    0.03584    0.17976   1.00
C3       0.50399    -0.06590   0.16366   1.00
C3       0.56873    0.05814    0.19035   1.00
C3       0.41864    -0.03515   0.15472   1.00
C3       0.47199    0.07332    0.18291   1.00
C2       0.41722    -0.13442   0.13824   1.00
C2       0.56305    0.15327    0.20622   1.00
C3       0.47506    -0.12057   0.14990   1.00
C3       0.59594    0.11485    0.20337   1.00
C3       0.38945    -0.09132   0.14121   1.00
C3       0.50175    0.13204    0.19541   1.00
H1       0.54510    -0.05995   0.17165   1.00
H1       0.59635    0.03412    0.18883   1.00
C5       0.38937    0.00724    0.15671   1.00
C5       0.40834    0.05249    0.17345   1.00
H1       0.49689    -0.15065   0.14848   1.00
H1       0.64081    0.12827    0.21076   1.00
H1       0.34629    -0.10159   0.13337   1.00
H1       0.47864    0.16083    0.19649   1.00
O3       0.34031    0.00103    0.14314   1.00
O3       0.36791    0.07926    0.17933   1.00
Si1      0.36253    0.04959    0.12303   1.00
Si1      0.31667    0.04530    0.19862   1.00
C6       0.28214    0.00893    0.11099   1.00
C6       0.38483    0.13241    0.13110   1.00
C6       0.42466    0.04455    0.10813   1.00
C6       0.31758    -0.02249   0.21165   1.00
C6       0.34189    0.11453    0.21520   1.00
C6       0.23362    0.01981    0.19007   1.00
C6       0.24512    -0.07089   0.11005   1.00
H2       0.25144    0.02057    0.12123   1.00
C6       0.27229    0.03193    0.08938   1.00
H2       0.35592    0.12208    0.14517   1.00
C6       0.46084    0.18283    0.13691   1.00
C6       0.36279    0.17524    0.11773   1.00
H2       0.40397    -0.01049   0.10701   1.00
C6       0.43427    0.07146    0.08579   1.00
C6       0.49945    0.07551    0.11642   1.00
C6       0.30284    -0.08728   0.19924   1.00
C6       0.37848    -0.00699   0.22615   1.00
H2       0.27435    -0.03951   0.22196   1.00
H2       0.39187    0.12526    0.22057   1.00
C6       0.35386    0.18260    0.20536   1.00
C6       0.29728    0.10268    0.23452   1.00
H2       0.23114    0.06673    0.19030   1.00
C6       0.21697    -0.00603   0.16774   1.00
C6       0.17203    -0.03298   0.20317   1.00
H2       0.23947    -0.09308   0.12513   1.00
H2       0.27327    -0.08812   0.10061   1.00
H2       0.19373    -0.09223   0.10380   1.00
H2       0.22125    0.02549    0.08810   1.00
H2       0.30876    0.08505    0.08614   1.00
H2       0.27666    0.00138    0.07729   1.00
H2       0.46513    0.22598    0.14558   1.00
H2       0.48206    0.15878    0.14644   1.00
H2       0.49265    0.20336    0.12342   1.00
H2       0.30780    0.14815    0.11521   1.00
H2       0.37503    0.22326    0.12515   1.00
H2       0.38881    0.18776    0.10309   1.00
H2       0.44376    0.12371    0.08533   1.00
H2       0.47690    0.07074    0.07820   1.00
H2       0.38987    0.03930    0.07655   1.00
H2       0.53095    0.12950    0.11270   1.00
H2       0.50203    0.07105    0.13271   1.00
H2       0.52399    0.04914    0.10964   1.00
H2       0.34842    -0.08073   0.19161   1.00
H2       0.28522    -0.13139   0.20927   1.00
H2       0.26333    -0.10045   0.18787   1.00
H2       0.36707    -0.05203   0.23517   1.00
H2       0.42534    0.00734    0.21790   1.00
H2       0.38850    0.03340    0.23697   1.00
H2       0.38025    0.22503    0.21599   1.00
H2       0.38596    0.19549    0.19185   1.00
H2       0.30607    0.17996    0.20106   1.00
H2       0.28795    0.05701    0.24276   1.00
H2       0.32325    0.14561    0.24501   1.00
H2       0.24823    0.09805    0.23067   1.00
H2       0.22033    -0.05189   0.16531   1.00
H2       0.16602    -0.01696   0.16328   1.00
H2       0.25280    0.03307    0.15752   1.00
H2       0.12439    -0.03657   0.19804   1.00
H2       0.16593    -0.08390   0.20214   1.00
H2       0.17802    -0.01825   0.21910   1.00
C4       1.01910    0.49020    0.16551   1.00
C4       0.96307    0.46339    0.17938   1.00
C3       1.07292    0.47528    0.16654   1.00
C3       0.95845    0.42412    0.19673   1.00
C3       1.02258    0.53535    0.14984   1.00
C3       0.90817    0.47604    0.17586   1.00
C2       1.13235    0.54915    0.13749   1.00
C2       0.84880    0.41229    0.20697   1.00
C3       1.12819    0.50421    0.15300   1.00
C3       0.90261    0.39872    0.21005   1.00
C3       1.07812    0.56300    0.13609   1.00
C3       0.85379    0.45246    0.18993   1.00
H1       1.07341    0.44276    0.17713   1.00
H1       0.99572    0.41317    0.20027   1.00
C5       0.97041    0.55235    0.14795   1.00
C5       0.90803    0.51263    0.15844   1.00
H1       1.16588    0.49194    0.15458   1.00
H1       0.90173    0.37012    0.22225   1.00
H1       1.07897    0.59381    0.12459   1.00
H1       0.81710    0.46564    0.18790   1.00
O3       0.97947    0.60426    0.13512   1.00
O3       0.85000    0.51384    0.15261   1.00
Si1      1.01052    0.68160    0.14392   1.00
Si1      0.79333    0.45152    0.13875   1.00
C6       1.02052    0.72254    0.12034   1.00
C6       0.94621    0.68316    0.15858   1.00
C6       1.08962    0.71232    0.15635   1.00
C6       0.80764    0.38372    0.13257   1.00
C6       0.71856    0.42021    0.15324   1.00
C6       0.78233    0.48796    0.11648   1.00
C6       1.05566    0.70302    0.10320   1.00
H2       0.96775    0.70180    0.11541   1.00
C6       1.05358    0.80210    0.11898   1.00
H2       0.90001    0.64135    0.15196   1.00
C6       0.94266    0.66675    0.18175   1.00
C6       0.93720    0.74721    0.15722   1.00
H2       1.11802    0.69925    0.14559   1.00
C6       1.13367    0.79122    0.15977   1.00
C6       1.09249    0.68078    0.17731   1.00
C6       0.87513    0.40119    0.12125   1.00
C6       0.79698    0.32974    0.14917   1.00
H2       0.76696    0.35455    0.12169   1.00
H2       0.72779    0.39578    0.16616   1.00
C6       0.70373    0.47504    0.16261   1.00
C6       0.65051    0.36484    0.14329   1.00
H2       0.74776    0.50606    0.12103   1.00
C6       0.84691    0.55237    0.10821   1.00
C6       0.74815    0.44029    0.09776   1.00
H2       1.02922    0.64800    0.10064   1.00
H2       1.10870    0.71964    0.10700   1.00
H2       1.05516    0.72643    0.08874   1.00
H2       1.03034    0.81552    0.10659   1.00
H2       1.04720    0.82456    0.13278   1.00
H2       1.10815    0.82743    0.11574   1.00
H2       0.89333    0.65511    0.18807   1.00
H2       0.94794    0.62232    0.18467   1.00
H2       0.98209    0.71002    0.19018   1.00
H2       0.92900    0.75743    0.14161   1.00
H2       0.89251    0.73960    0.16578   1.00
H2       0.98159    0.79237    0.16339   1.00
H2       1.10443    0.81080    0.16756   1.00
H2       1.17935    0.80504    0.16879   1.00
H2       1.15247    0.81822    0.14550   1.00
H2       1.08371    0.70625    0.19004   1.00
H2       1.05570    0.62693    0.17864   1.00
H2       1.14288    0.68625    0.17950   1.00
H2       0.91764    0.41725    0.13173   1.00
H2       0.86943    0.35638    0.11322   1.00
H2       0.88919    0.44120    0.11000   1.00
H2       0.79828    0.28634    0.14237   1.00
H2       0.83650    0.35053    0.16074   1.00
H2       0.74759    0.30894    0.15665   1.00
H2       0.66335    0.45182    0.17401   1.00
H2       0.74867    0.51533    0.17028   1.00
H2       0.68750    0.49871    0.15115   1.00
H2       0.65549    0.32318    0.13683   1.00
H2       0.60987    0.34235    0.15464   1.00
H2       0.63376    0.38664    0.13136   1.00
H2       0.88687    0.54142    0.10381   1.00
H2       0.83491    0.57407    0.09512   1.00
H2       0.86761    0.59159    0.11982   1.00
H2       0.73477    0.46617    0.08617   1.00
H2       0.78231    0.42513    0.09076   1.00
H2       0.70106    0.39423    0.10192   1.00
C4       0.51010    0.52859    0.16528   1.00
C4       0.53700    0.49957    0.17920   1.00
C3       0.53300    0.59944    0.16419   1.00
C3       0.58495    0.53755    0.19460   1.00
C3       0.45655    0.48468    0.15185   1.00
C3       0.51530    0.42870    0.17775   1.00
C2       0.45073    0.58291    0.13742   1.00
C2       0.58783    0.43682    0.20704   1.00
C3       0.50391    0.62586    0.15073   1.00
C3       0.61017    0.50721    0.20803   1.00
C3       0.42875    0.51248    0.13812   1.00
C3       0.53911    0.39854    0.19197   1.00
H1       0.57165    0.63396    0.17309   1.00
H1       0.60265    0.58828    0.19661   1.00
C5       0.43131    0.41334    0.15216   1.00
C5       0.46953    0.38813    0.16226   1.00
H1       0.52223    0.67748    0.15072   1.00
H1       0.64522    0.53732    0.21876   1.00
H1       0.39168    0.48058    0.12819   1.00
H1       0.51978    0.34695    0.19155   1.00
O3       0.37257    0.37021    0.14171   1.00
O3       0.45846    0.32356    0.15807   1.00
Si1      0.29906    0.33540    0.15333   1.00
Si1      0.51082    0.31558    0.14282   1.00
C6       0.24742    0.29912    0.13170   1.00
C6       0.29550    0.27192    0.16961   1.00
C6       0.28209    0.39546    0.16505   1.00
C6       0.58117    0.39050    0.13308   1.00
C6       0.54034    0.27118    0.15762   1.00
C6       0.46179    0.26182    0.12282   1.00
C6       0.26511    0.34738    0.11287   1.00
H2       0.26043    0.26060    0.12720   1.00
C6       0.16755    0.26041    0.13331   1.00
H2       0.33072    0.25899    0.16225   1.00
C6       0.32205    0.29231    0.19185   1.00
C6       0.22657    0.20308    0.17158   1.00
H2       0.29485    0.43318    0.15303   1.00
C6       0.20632    0.37082    0.17108   1.00
C6       0.32440    0.43566    0.18422   1.00
C6       0.56659    0.44118    0.12095   1.00
C6       0.64347    0.43531    0.14720   1.00
H2       0.60203    0.37012    0.12196   1.00
H2       0.57260    0.30839    0.16899   1.00
C6       0.48489    0.20889    0.16992   1.00
C6       0.58562    0.24636    0.14688   1.00
H2       0.44035    0.21053    0.12910   1.00
C6       0.39889    0.26754    0.11604   1.00
C6       0.49958    0.26220    0.10288   1.00
H2       0.31841    0.36900    0.10838   1.00
H2       0.25598    0.38953    0.11605   1.00
H2       0.23437    0.31969    0.09970   1.00
H2       0.14529    0.21873    0.12230   1.00
H2       0.14900    0.23848    0.14822   1.00
H2       0.14650    0.29342    0.12989   1.00
H2       0.33069    0.25346    0.19883   1.00
H2       0.37057    0.33981    0.19247   1.00
H2       0.28520    0.29747    0.20125   1.00
H2       0.20821    0.17894    0.15682   1.00
H2       0.23252    0.16631    0.18085   1.00
H2       0.18741    0.21085    0.17869   1.00
H2       0.18538    0.32508    0.18050   1.00
H2       0.20141    0.40983    0.17949   1.00
H2       0.17434    0.36027    0.15776   1.00
H2       0.30195    0.40801    0.19828   1.00
H2       0.37682    0.44683    0.18391   1.00
H2       0.32596    0.48462    0.18534   1.00
H2       0.55954    0.47536    0.13099   1.00
H2       0.60949    0.47316    0.11098   1.00
H2       0.52163    0.41487    0.11136   1.00
H2       0.68630    0.47386    0.13834   1.00
H2       0.63154    0.46243    0.15862   1.00
H2       0.66220    0.40527    0.15489   1.00
H2       0.50896    0.19209    0.18115   1.00
H2       0.45155    0.22228    0.17828   1.00
H2       0.45316    0.16555    0.16014   1.00
H2       0.62724    0.28733    0.13835   1.00
H2       0.60888    0.22860    0.15810   1.00
H2       0.55560    0.20402    0.13656   1.00
H2       0.41357    0.31799    0.11011   1.00
H2       0.36907    0.22984    0.10443   1.00
H2       0.36525    0.25791    0.12888   1.00
H2       0.46584    0.21980    0.09299   1.00
H2       0.51685    0.30939    0.09433   1.00
H2       0.54370    0.25646    0.10601   1.00
C4       0.64526    0.81087    0.66702   1.00
C4       0.70262    0.84004    0.65363   1.00
C3       0.60293    0.83957    0.67048   1.00
C3       0.72705    0.90392    0.64381   1.00
C3       0.62947    0.75017    0.67787   1.00
C3       0.73788    0.80375    0.64966   1.00
C2       0.53224    0.75066    0.69510   1.00
C2       0.81993    0.89629    0.62712   1.00
C3       0.54822    0.81056    0.68422   1.00
C3       0.78369    0.93101    0.63077   1.00
C3       0.57327    0.72098    0.69137   1.00
C3       0.79659    0.83328    0.63716   1.00
H1       0.61047    0.88226    0.66307   1.00
H1       0.70469    0.93285    0.64595   1.00
C5       0.66974    0.71886    0.67510   1.00
C5       0.71484    0.73851    0.65831   1.00
H1       0.51968    0.83385    0.68621   1.00
H1       0.79870    0.97715    0.62396   1.00
H1       0.56142    0.67640    0.69863   1.00
H1       0.82381    0.80869    0.63550   1.00
O3       0.66161    0.66736    0.68797   1.00
O3       0.73936    0.69697    0.65160   1.00
Si1      0.71002    0.68542    0.70801   1.00
Si1      0.70403    0.64864    0.63183   1.00
C6       0.66687    0.60360    0.71914   1.00
C6       0.79200    0.70579    0.69963   1.00
C6       0.70765    0.74701    0.72388   1.00
C6       0.63776    0.65403    0.61936   1.00
C6       0.77285    0.67365    0.61510   1.00
C6       0.67563    0.56394    0.63931   1.00
C6       0.58722    0.56902    0.72015   1.00
H2       0.67701    0.57316    0.70835   1.00
C6       0.68894    0.58982    0.74039   1.00
H2       0.78072    0.67858    0.68522   1.00
C6       0.84451    0.78194    0.69458   1.00
C6       0.83298    0.67984    0.71231   1.00
H2       0.65292    0.72804    0.72512   1.00
C6       0.73435    0.75281    0.74613   1.00
C6       0.74106    0.82303    0.71648   1.00
C6       0.57372    0.64006    0.63206   1.00
C6       0.65546    0.71734    0.60567   1.00
H2       0.61932    0.61200    0.60854   1.00
H2       0.78544    0.72484    0.61041   1.00
C6       0.83995    0.68178    0.62457   1.00
C6       0.75943    0.63117    0.59521   1.00
H2       0.72145    0.55952    0.63867   1.00
C6       0.64961    0.54513    0.66157   1.00
C6       0.62144    0.50502    0.62571   1.00
H2       0.56530    0.56612    0.70517   1.00
H2       0.57152    0.59719    0.73014   1.00
H2       0.56420    0.51671    0.72578   1.00
H2       0.68052    0.53790    0.74095   1.00
H2       0.74243    0.62439    0.74376   1.00
H2       0.65920    0.59396    0.75278   1.00
H2       0.88693    0.78566    0.68563   1.00
H2       0.82187    0.80578    0.68557   1.00
H2       0.86590    0.81177    0.70838   1.00
H2       0.80419    0.62459    0.71421   1.00
H2       0.88050    0.69131    0.70470   1.00
H2       0.84629    0.70395    0.72724   1.00
H2       0.78587    0.76028    0.74631   1.00
H2       0.73540    0.79530    0.75436   1.00
H2       0.70102    0.70768    0.75493   1.00
H2       0.79519    0.85244    0.72025   1.00
H2       0.73682    0.82796    0.70028   1.00
H2       0.71626    0.84824    0.72384   1.00
H2       0.58201    0.68525    0.64031   1.00
H2       0.52983    0.62521    0.62211   1.00
H2       0.55917    0.59886    0.64292   1.00
H2       0.61093    0.70872    0.59685   1.00
H2       0.67142    0.76344    0.61452   1.00
H2       0.69543    0.72730    0.59470   1.00
H2       0.88259    0.70831    0.61402   1.00
H2       0.85388    0.71221    0.63845   1.00
H2       0.83537    0.63263    0.62816   1.00
H2       0.71437    0.62460    0.58720   1.00
H2       0.80254    0.65723    0.58479   1.00
H2       0.75286    0.58087    0.59836   1.00
H2       0.60487    0.55012    0.66441   1.00
H2       0.63680    0.49308    0.66534   1.00
H2       0.68935    0.57873    0.67202   1.00
H2       0.61593    0.45596    0.63014   1.00
H2       0.57135    0.50077    0.62705   1.00
H2       0.63612    0.51260    0.60976   1.00
C4       0.16578    0.35191    0.66806   1.00
C4       0.13678    0.29481    0.65457   1.00
C3       0.21123    0.35993    0.68404   1.00
C3       0.14537    0.23719    0.65685   1.00
C3       0.14788    0.40370    0.66577   1.00
C3       0.09700    0.29477    0.63776   1.00
C2       0.21957    0.46718    0.69532   1.00
C2       0.07519    0.18065    0.62690   1.00
C3       0.23710    0.41575    0.69737   1.00
C3       0.11597    0.18195    0.64330   1.00
C3       0.17554    0.46027    0.67914   1.00
C3       0.06542    0.23732    0.62479   1.00
H1       0.22705    0.32557    0.68642   1.00
H1       0.17287    0.23345    0.66850   1.00
C5       0.10271    0.39881    0.65009   1.00
C5       0.08840    0.35167    0.63408   1.00
H1       0.26938    0.41858    0.70875   1.00
H1       0.12440    0.14192    0.64560   1.00
H1       0.16374    0.49797    0.67697   1.00
H1       0.03357    0.23619    0.61361   1.00
O3       0.07675    0.44237    0.64999   1.00
O3       0.06199    0.35868    0.61592   1.00
Si1      0.00324    0.41904    0.66068   1.00
Si1      0.11331    0.39313    0.59667   1.00
C6       0.00629    0.49826    0.65869   1.00
C6       -0.06050   0.35729    0.64486   1.00
C6       -0.00060   0.39436    0.68627   1.00
C6       0.20005    0.41720    0.59977   1.00
C6       0.07665    0.33011    0.57784   1.00
C6       0.10624    0.46370    0.58883   1.00
C6       0.07472    0.56227    0.66552   1.00
H2       0.00365    0.50367    0.64231   1.00
C6       -0.05175   0.50880    0.66789   1.00
H2       -0.03531   0.36987    0.63010   1.00
C6       -0.08371   0.28048    0.64859   1.00
C6       -0.12809   0.35917    0.64179   1.00
H2       0.04695    0.43586    0.69241   1.00
C6       -0.05918   0.39145    0.69965   1.00
C6       -0.00118   0.32632    0.69146   1.00
C6       0.24114    0.46840    0.61715   1.00
C6       0.22103    0.36094    0.60017   1.00
H2       0.22276    0.44483    0.58572   1.00
H2       0.08577    0.28982    0.58323   1.00
C6       -0.00253   0.29557    0.57528   1.00
C6       0.10785    0.34925    0.55605   1.00
H2       0.06001    0.44128    0.57960   1.00
C6       0.09345    0.50374    0.60587   1.00
C6       0.16415    0.51870    0.57513   1.00
H2       0.11839    0.56575    0.65740   1.00
H2       0.08349    0.56066    0.68177   1.00
H2       0.07432    0.60947    0.66237   1.00
H2       -0.05903   0.54454    0.65854   1.00
H2       -0.10053   0.46180    0.66878   1.00
H2       -0.03939   0.53061    0.68312   1.00
H2       -0.11171   0.24950    0.63548   1.00
H2       -0.04063   0.27246    0.65083   1.00
H2       -0.11737   0.26051    0.66173   1.00
H2       -0.11793   0.40872    0.63619   1.00
H2       -0.16099   0.32174    0.63049   1.00
H2       -0.15699   0.34769    0.65592   1.00
H2       -0.10896   0.35946    0.69265   1.00
H2       -0.06045   0.37117    0.71482   1.00
H2       -0.05195   0.44206    0.70218   1.00
H2       -0.05269   0.28229    0.69143   1.00
H2       0.02885    0.31483    0.68110   1.00
H2       0.01983    0.32959    0.70663   1.00
H2       0.23336    0.44263    0.63168   1.00
H2       0.29583    0.49414    0.61396   1.00
H2       0.22757    0.50795    0.61887   1.00
H2       0.27648    0.38407    0.59926   1.00
H2       0.20494    0.33090    0.61403   1.00
H2       0.20032    0.32621    0.58730   1.00
H2       -0.02179   0.24985    0.56586   1.00
H2       -0.02865   0.27930    0.58989   1.00
H2       -0.01743   0.32962    0.56814   1.00
H2       0.16319    0.37200    0.55629   1.00
H2       0.08779    0.30363    0.54653   1.00
H2       0.09529    0.38475    0.54867   1.00
H2       0.13545    0.52671    0.61668   1.00
H2       0.08570    0.54406    0.59964   1.00
H2       0.04753    0.46943    0.61419   1.00
H2       0.14894    0.55376    0.56879   1.00
H2       0.21112    0.54904    0.58373   1.00
H2       0.17559    0.49565    0.56232   1.00
C4       0.18620    0.83412    0.66799   1.00
C4       0.15804    0.86309    0.65451   1.00
C3       0.14795    0.78615    0.68336   1.00
C3       0.09065    0.85180    0.65624   1.00
C3       0.25676    0.85466    0.66635   1.00
C3       0.19896    0.90569    0.63830   1.00
C2       0.24769    0.78046    0.69530   1.00
C2       0.10536    0.92478    0.62692   1.00
C3       0.17788    0.76033    0.69672   1.00
C3       0.06479    0.88126    0.64272   1.00
C3       0.28570    0.82705    0.67972   1.00
C3       0.17292    0.93722    0.62538   1.00
H1       0.09717    0.76839    0.68526   1.00
H1       0.05852    0.82219    0.66745   1.00
C5       0.29788    0.90243    0.65130   1.00
C5       0.26581    0.91715    0.63517   1.00
H1       0.14779    0.72615    0.70763   1.00
H1       0.01548    0.87082    0.64460   1.00
H1       0.33592    0.84082    0.67800   1.00
H1       0.20429    0.97100    0.61466   1.00
O3       0.36768    0.93059    0.65190   1.00
O3       0.30100    0.94658    0.61746   1.00
Si1      0.41456    1.00320    0.66348   1.00
Si1      0.28820    0.89808    0.59774   1.00
C6       0.49253    1.00345    0.66203   1.00
C6       0.41595    1.06766    0.64814   1.00
C6       0.39006    1.00294    0.68892   1.00
C6       0.22746    0.81031    0.59974   1.00
C6       0.26217    0.93529    0.57899   1.00
C6       0.36798    0.90903    0.59052   1.00
C6       0.48994    0.93543    0.66833   1.00
H2       0.50261    1.00840    0.64574   1.00
C6       0.55895    1.06182    0.67214   1.00
H2       0.40590    1.04434    0.63312   1.00
C6       0.35996    1.08782    0.65163   1.00
C6       0.48437    1.13694    0.64607   1.00
H2       0.38507    0.95538    0.69467   1.00
C6       0.44281    1.06081    0.70312   1.00
C6       0.32068    1.00022    0.69361   1.00
C6       0.23730    0.76830    0.61689   1.00
C6       0.14956    0.78668    0.59942   1.00
H2       0.23509    0.79002    0.58559   1.00
H2       0.21153    0.92375    0.58395   1.00
C6       0.30477    1.01489    0.57733   1.00
C6       0.25376    0.90699    0.55690   1.00
H2       0.39149    0.95638    0.58181   1.00
C6       0.41921    0.92150    0.60803   1.00
C6       0.36900    0.85393    0.57640   1.00
H2       0.45173    0.89210    0.65961   1.00
H2       0.47775    0.92440    0.68442   1.00
H2       0.53880    0.93807    0.66554   1.00
H2       0.60363    1.07181    0.66317   1.00
H2       0.55869    1.10954    0.67340   1.00
H2       0.56723    1.04819    0.68734   1.00
H2       0.35738    1.11675    0.63871   1.00
H2       0.30935    1.04335    0.65319   1.00
H2       0.37095    1.11966    0.66511   1.00
H2       0.52560    1.12924    0.64069   1.00
H2       0.47981    1.17039    0.63498   1.00
H2       0.49924    1.16416    0.66052   1.00
H2       0.45979    1.11113    0.69660   1.00
H2       0.42154    1.05941    0.71814   1.00
H2       0.48699    1.05512    0.70591   1.00
H2       0.32624    1.05094    0.69400   1.00
H2       0.28084    0.97048    0.68274   1.00
H2       0.30161    0.97705    0.70848   1.00
H2       0.21689    0.77339    0.63133   1.00
H2       0.21040    0.71402    0.61310   1.00
H2       0.29067    0.78346    0.61910   1.00
H2       0.11897    0.73123    0.59789   1.00
H2       0.13302    0.80015    0.61329   1.00
H2       0.13600    0.80801    0.58661   1.00
H2       0.27818    1.03388    0.56785   1.00
H2       0.31199    1.03903    0.59218   1.00
H2       0.35492    1.03229    0.57066   1.00
H2       0.22276    0.85149    0.55651   1.00
H2       0.22808    0.92681    0.54735   1.00
H2       0.30313    0.92210    0.54997   1.00
H2       0.40020    0.87828    0.61839   1.00
H2       0.46863    0.93176    0.60222   1.00
H2       0.42819    0.96588    0.61676   1.00
H2       0.42036    0.87158    0.57055   1.00
H2       0.35289    0.80621    0.58454   1.00
H2       0.33587    0.84297    0.56327   1.00
