data_IRMOF10_interpen_symm_ligand3cp_label_f_1.

_audit_creation_method             'generated by an auxiliary program of Tobunporous'

_symmetry_space_group_name_H-M     'P 1'
_symmetry_Int_Tables_number        1
_symmetry_cell_setting             triclinic

_cell_length_a                    22.6523
_cell_length_b                    22.6523
_cell_length_c                    65.9502
_cell_angle_alpha                 90.0000
_cell_angle_beta                  90.0000
_cell_angle_gamma                 120.0000

loop_
_atom_site_label
_atom_site_fract_x
_atom_site_fract_y
_atom_site_fract_z
_atom_site_occupancy
O1       0.00000    0.00000    0.57470   1.00
Zn1      0.00000    0.00000    0.54560   1.00
Zn1      0.94843    0.04287    0.58357   1.00
Zn1      0.09443    0.05157    0.58357   1.00
Zn1      0.95713    0.90557    0.58357   1.00
O2       0.93860    0.02610    0.53560   1.00
O2       0.08750    0.06140    0.53560   1.00
O2       0.97390    0.91250    0.53560   1.00
O2       0.91300    0.07160    0.56150   1.00
O2       0.00463    0.12027    0.60077   1.00
O2       0.87413    0.98077    0.60037   1.00
O2       0.15860    0.08700    0.56150   1.00
O2       0.10663    0.12587    0.60037   1.00
O2       0.11563    0.99537    0.60077   1.00
O2       0.92840    0.84140    0.56150   1.00
O2       0.87973    0.88437    0.60077   1.00
O2       0.01923    0.89337    0.60037   1.00
C1       0.91390    0.06020    0.54330   1.00
C1       0.14630    0.08610    0.54330   1.00
C1       0.93980    0.85370    0.54330   1.00
C1       0.06663    0.14397    0.60637   1.00
C1       0.85603    0.92267    0.60637   1.00
C1       0.07733    0.93337    0.60637   1.00
O1       0.00000    0.00000    0.92530   1.00
Zn1      0.00000    0.00000    0.95440   1.00
Zn1      0.04287    0.94843    0.91643   1.00
Zn1      0.05157    0.09443    0.91643   1.00
Zn1      0.90557    0.95713    0.91643   1.00
O2       0.02610    0.93860    0.96440   1.00
O2       0.06140    0.08750    0.96440   1.00
O2       0.91250    0.97390    0.96440   1.00
O2       0.07160    0.91300    0.93850   1.00
O2       0.12027    0.00463    0.89923   1.00
O2       0.98077    0.87413    0.89963   1.00
O2       0.08700    0.15860    0.93850   1.00
O2       0.12587    0.10663    0.89963   1.00
O2       0.99537    0.11563    0.89923   1.00
O2       0.84140    0.92840    0.93850   1.00
O2       0.88437    0.87973    0.89923   1.00
O2       0.89337    0.01923    0.89963   1.00
C1       0.06020    0.91390    0.95670   1.00
C1       0.08610    0.14630    0.95670   1.00
C1       0.85370    0.93980    0.95670   1.00
C1       0.14397    0.06663    0.89363   1.00
C1       0.92267    0.85603    0.89363   1.00
C1       0.93337    0.07733    0.89363   1.00
O1       0.00000    0.00000    0.42530   1.00
Zn1      0.00000    0.00000    0.45440   1.00
Zn1      0.05157    0.95713    0.41643   1.00
Zn1      0.90557    0.94843    0.41643   1.00
Zn1      0.04287    0.09443    0.41643   1.00
O2       0.06140    0.97390    0.46440   1.00
O2       0.91250    0.93860    0.46440   1.00
O2       0.02610    0.08750    0.46440   1.00
O2       0.08700    0.92840    0.43850   1.00
O2       0.99537    0.87973    0.39923   1.00
O2       0.12587    0.01923    0.39963   1.00
O2       0.84140    0.91300    0.43850   1.00
O2       0.89337    0.87413    0.39963   1.00
O2       0.88437    0.00463    0.39923   1.00
O2       0.07160    0.15860    0.43850   1.00
O2       0.12027    0.11563    0.39923   1.00
O2       0.98077    0.10663    0.39963   1.00
C1       0.08610    0.93980    0.45670   1.00
C1       0.85370    0.91390    0.45670   1.00
C1       0.06020    0.14630    0.45670   1.00
C1       0.93337    0.85603    0.39363   1.00
C1       0.14397    0.07733    0.39363   1.00
C1       0.92267    0.06663    0.39363   1.00
O1       0.00000    0.00000    0.07470   1.00
Zn1      0.00000    0.00000    0.04560   1.00
Zn1      0.95713    0.05157    0.08357   1.00
Zn1      0.94843    0.90557    0.08357   1.00
Zn1      0.09443    0.04287    0.08357   1.00
O2       0.97390    0.06140    0.03560   1.00
O2       0.93860    0.91250    0.03560   1.00
O2       0.08750    0.02610    0.03560   1.00
O2       0.92840    0.08700    0.06150   1.00
O2       0.87973    0.99537    0.10077   1.00
O2       0.01923    0.12587    0.10037   1.00
O2       0.91300    0.84140    0.06150   1.00
O2       0.87413    0.89337    0.10037   1.00
O2       0.00463    0.88437    0.10077   1.00
O2       0.15860    0.07160    0.06150   1.00
O2       0.11563    0.12027    0.10077   1.00
O2       0.10663    0.98077    0.10037   1.00
C1       0.93980    0.08610    0.04330   1.00
C1       0.91390    0.85370    0.04330   1.00
C1       0.14630    0.06020    0.04330   1.00
C1       0.85603    0.93337    0.10637   1.00
C1       0.07733    0.14397    0.10637   1.00
C1       0.06663    0.92267    0.10637   1.00
O1       0.66667    0.33333    0.90803   1.00
Zn1      0.66667    0.33333    0.87893   1.00
Zn1      0.61510    0.37620    0.91690   1.00
Zn1      0.76110    0.38490    0.91690   1.00
Zn1      0.62380    0.23890    0.91690   1.00
O2       0.60527    0.35943    0.86893   1.00
O2       0.75417    0.39473    0.86893   1.00
O2       0.64057    0.24583    0.86893   1.00
O2       0.57967    0.40493    0.89483   1.00
O2       0.67130    0.45360    0.93410   1.00
O2       0.54080    0.31410    0.93370   1.00
O2       0.82527    0.42033    0.89483   1.00
O2       0.77330    0.45920    0.93370   1.00
O2       0.78230    0.32870    0.93410   1.00
O2       0.59507    0.17473    0.89483   1.00
O2       0.54640    0.21770    0.93410   1.00
O2       0.68590    0.22670    0.93370   1.00
C1       0.58057    0.39353    0.87663   1.00
C1       0.81297    0.41943    0.87663   1.00
C1       0.60647    0.18703    0.87663   1.00
C1       0.73330    0.47730    0.93970   1.00
C1       0.52270    0.25600    0.93970   1.00
C1       0.74400    0.26670    0.93970   1.00
O1       0.66667    0.33333    0.25863   1.00
Zn1      0.66667    0.33333    0.28773   1.00
Zn1      0.70953    0.28177    0.24977   1.00
Zn1      0.71823    0.42777    0.24977   1.00
Zn1      0.57223    0.29047    0.24977   1.00
O2       0.69277    0.27193    0.29773   1.00
O2       0.72807    0.42083    0.29773   1.00
O2       0.57917    0.30723    0.29773   1.00
O2       0.73827    0.24633    0.27183   1.00
O2       0.78693    0.33797    0.23257   1.00
O2       0.64743    0.20747    0.23297   1.00
O2       0.75367    0.49193    0.27183   1.00
O2       0.79253    0.43997    0.23297   1.00
O2       0.66203    0.44897    0.23257   1.00
O2       0.50807    0.26173    0.27183   1.00
O2       0.55103    0.21307    0.23257   1.00
O2       0.56003    0.35257    0.23297   1.00
C1       0.72687    0.24723    0.29003   1.00
C1       0.75277    0.47963    0.29003   1.00
C1       0.52037    0.27313    0.29003   1.00
C1       0.81063    0.39997    0.22697   1.00
C1       0.58933    0.18937    0.22697   1.00
C1       0.60003    0.41067    0.22697   1.00
O1       0.66667    0.33333    0.75863   1.00
Zn1      0.66667    0.33333    0.78773   1.00
Zn1      0.71823    0.29047    0.74977   1.00
Zn1      0.57223    0.28177    0.74977   1.00
Zn1      0.70953    0.42777    0.74977   1.00
O2       0.72807    0.30723    0.79773   1.00
O2       0.57917    0.27193    0.79773   1.00
O2       0.69277    0.42083    0.79773   1.00
O2       0.75367    0.26173    0.77183   1.00
O2       0.66203    0.21307    0.73257   1.00
O2       0.79253    0.35257    0.73297   1.00
O2       0.50807    0.24633    0.77183   1.00
O2       0.56003    0.20747    0.73297   1.00
O2       0.55103    0.33797    0.73257   1.00
O2       0.73827    0.49193    0.77183   1.00
O2       0.78693    0.44897    0.73257   1.00
O2       0.64743    0.43997    0.73297   1.00
C1       0.75277    0.27313    0.79003   1.00
C1       0.52037    0.24723    0.79003   1.00
C1       0.72687    0.47963    0.79003   1.00
C1       0.60003    0.18937    0.72697   1.00
C1       0.81063    0.41067    0.72697   1.00
C1       0.58933    0.39997    0.72697   1.00
O1       0.66667    0.33333    0.40803   1.00
Zn1      0.66667    0.33333    0.37893   1.00
Zn1      0.62380    0.38490    0.41690   1.00
Zn1      0.61510    0.23890    0.41690   1.00
Zn1      0.76110    0.37620    0.41690   1.00
O2       0.64057    0.39473    0.36893   1.00
O2       0.60527    0.24583    0.36893   1.00
O2       0.75417    0.35943    0.36893   1.00
O2       0.59507    0.42033    0.39483   1.00
O2       0.54640    0.32870    0.43410   1.00
O2       0.68590    0.45920    0.43370   1.00
O2       0.57967    0.17473    0.39483   1.00
O2       0.54080    0.22670    0.43370   1.00
O2       0.67130    0.21770    0.43410   1.00
O2       0.82527    0.40493    0.39483   1.00
O2       0.78230    0.45360    0.43410   1.00
O2       0.77330    0.31410    0.43370   1.00
C1       0.60647    0.41943    0.37663   1.00
C1       0.58057    0.18703    0.37663   1.00
C1       0.81297    0.39353    0.37663   1.00
C1       0.52270    0.26670    0.43970   1.00
C1       0.74400    0.47730    0.43970   1.00
C1       0.73330    0.25600    0.43970   1.00
O1       0.33333    0.66667    0.24137   1.00
Zn1      0.33333    0.66667    0.21227   1.00
Zn1      0.28177    0.70953    0.25023   1.00
Zn1      0.42777    0.71823    0.25023   1.00
Zn1      0.29047    0.57223    0.25023   1.00
O2       0.27193    0.69277    0.20227   1.00
O2       0.42083    0.72807    0.20227   1.00
O2       0.30723    0.57917    0.20227   1.00
O2       0.24633    0.73827    0.22817   1.00
O2       0.33797    0.78693    0.26743   1.00
O2       0.20747    0.64743    0.26703   1.00
O2       0.49193    0.75367    0.22817   1.00
O2       0.43997    0.79253    0.26703   1.00
O2       0.44897    0.66203    0.26743   1.00
O2       0.26173    0.50807    0.22817   1.00
O2       0.21307    0.55103    0.26743   1.00
O2       0.35257    0.56003    0.26703   1.00
C1       0.24723    0.72687    0.20997   1.00
C1       0.47963    0.75277    0.20997   1.00
C1       0.27313    0.52037    0.20997   1.00
C1       0.39997    0.81063    0.27303   1.00
C1       0.18937    0.58933    0.27303   1.00
C1       0.41067    0.60003    0.27303   1.00
O1       0.33333    0.66667    0.59197   1.00
Zn1      0.33333    0.66667    0.62107   1.00
Zn1      0.37620    0.61510    0.58310   1.00
Zn1      0.38490    0.76110    0.58310   1.00
Zn1      0.23890    0.62380    0.58310   1.00
O2       0.35943    0.60527    0.63107   1.00
O2       0.39473    0.75417    0.63107   1.00
O2       0.24583    0.64057    0.63107   1.00
O2       0.40493    0.57967    0.60517   1.00
O2       0.45360    0.67130    0.56590   1.00
O2       0.31410    0.54080    0.56630   1.00
O2       0.42033    0.82527    0.60517   1.00
O2       0.45920    0.77330    0.56630   1.00
O2       0.32870    0.78230    0.56590   1.00
O2       0.17473    0.59507    0.60517   1.00
O2       0.21770    0.54640    0.56590   1.00
O2       0.22670    0.68590    0.56630   1.00
C1       0.39353    0.58057    0.62337   1.00
C1       0.41943    0.81297    0.62337   1.00
C1       0.18703    0.60647    0.62337   1.00
C1       0.47730    0.73330    0.56030   1.00
C1       0.25600    0.52270    0.56030   1.00
C1       0.26670    0.74400    0.56030   1.00
O1       0.33333    0.66667    0.09197   1.00
Zn1      0.33333    0.66667    0.12107   1.00
Zn1      0.38490    0.62380    0.08310   1.00
Zn1      0.23890    0.61510    0.08310   1.00
Zn1      0.37620    0.76110    0.08310   1.00
O2       0.39473    0.64057    0.13107   1.00
O2       0.24583    0.60527    0.13107   1.00
O2       0.35943    0.75417    0.13107   1.00
O2       0.42033    0.59507    0.10517   1.00
O2       0.32870    0.54640    0.06590   1.00
O2       0.45920    0.68590    0.06630   1.00
O2       0.17473    0.57967    0.10517   1.00
O2       0.22670    0.54080    0.06630   1.00
O2       0.21770    0.67130    0.06590   1.00
O2       0.40493    0.82527    0.10517   1.00
O2       0.45360    0.78230    0.06590   1.00
O2       0.31410    0.77330    0.06630   1.00
C1       0.41943    0.60647    0.12337   1.00
C1       0.18703    0.58057    0.12337   1.00
C1       0.39353    0.81297    0.12337   1.00
C1       0.26670    0.52270    0.06030   1.00
C1       0.47730    0.74400    0.06030   1.00
C1       0.25600    0.73330    0.06030   1.00
O1       0.33333    0.66667    0.74137   1.00
Zn1      0.33333    0.66667    0.71227   1.00
Zn1      0.29047    0.71823    0.75023   1.00
Zn1      0.28177    0.57223    0.75023   1.00
Zn1      0.42777    0.70953    0.75023   1.00
O2       0.30723    0.72807    0.70227   1.00
O2       0.27193    0.57917    0.70227   1.00
O2       0.42083    0.69277    0.70227   1.00
O2       0.26173    0.75367    0.72817   1.00
O2       0.21307    0.66203    0.76743   1.00
O2       0.35257    0.79253    0.76703   1.00
O2       0.24633    0.50807    0.72817   1.00
O2       0.20747    0.56003    0.76703   1.00
O2       0.33797    0.55103    0.76743   1.00
O2       0.49193    0.73827    0.72817   1.00
O2       0.44897    0.78693    0.76743   1.00
O2       0.43997    0.64743    0.76703   1.00
C1       0.27313    0.75277    0.70997   1.00
C1       0.24723    0.52037    0.70997   1.00
C1       0.47963    0.72687    0.70997   1.00
C1       0.18937    0.60003    0.77303   1.00
C1       0.41067    0.81063    0.77303   1.00
C1       0.39997    0.58933    0.77303   1.00
C4       0.86029    0.69301    0.49870   1.00
C4       0.83163    0.63782    0.48453   1.00
C3       0.92866    0.74764    0.49774   1.00
C3       0.87008    0.62849    0.46914   1.00
C3       0.81905    0.69360    0.51499   1.00
C3       0.76058    0.58897    0.48562   1.00
C2       0.91542    0.80095    0.52853   1.00
C2       0.77023    0.52400    0.45674   1.00
C3       0.95562    0.79993    0.51230   1.00
C3       0.84013    0.57352    0.45550   1.00
C3       0.84683    0.74750    0.52930   1.00
C3       0.73202    0.53235    0.47229   1.00
H1       0.96080    0.75116    0.48640   1.00
H1       0.92104    0.66110    0.46745   1.00
C5       0.75025    0.64052    0.51682   1.00
C5       0.71850    0.59643    0.50010   1.00
H1       1.00557    0.83785    0.51091   1.00
H1       0.87031    0.56969    0.44456   1.00
H1       0.81610    0.74825    0.54058   1.00
H1       0.68208    0.49552    0.47410   1.00
O3       0.71429    0.63508    0.53426   1.00
O3       0.64823    0.55812    0.49885   1.00
Si1      0.71193    0.58576    0.55268   1.00
Si1      0.60805    0.58469    0.48426   1.00
C6       0.67114    0.61089    0.57071   1.00
C6       0.65830    0.50073    0.54489   1.00
C6       0.79359    0.60471    0.56110   1.00
C6       0.65686    0.65998    0.47002   1.00
C6       0.56250    0.51576    0.46770   1.00
C6       0.54871    0.59280    0.49956   1.00
C6       0.70105    0.68969    0.57310   1.00
H2       0.62069    0.59169    0.56400   1.00
C6       0.65790    0.58203    0.59292   1.00
H2       0.62558    0.50624    0.53381   1.00
C6       0.69098    0.46348    0.53348   1.00
C6       0.60877    0.44785    0.56080   1.00
H2       0.81971    0.66013    0.56276   1.00
C6       0.79817    0.57603    0.58231   1.00
C6       0.83970    0.58866    0.54696   1.00
C6       0.70645    0.72674    0.48173   1.00
C6       0.69667    0.65805    0.45083   1.00
H2       0.61766    0.66926    0.46372   1.00
H2       0.60196    0.51593    0.45816   1.00
C6       0.52456    0.44334    0.47769   1.00
C6       0.51036    0.51965    0.45299   1.00
H2       0.50574    0.54085    0.50071   1.00
C6       0.57068    0.61582    0.52191   1.00
C6       0.51854    0.63720    0.49141   1.00
H2       0.70229    0.71365    0.55860   1.00
H2       0.75294    0.71447    0.57913   1.00
H2       0.66986    0.70075    0.58335   1.00
H2       0.61044    0.57717    0.59874   1.00
H2       0.65353    0.53209    0.59395   1.00
H2       0.69814    0.61573    0.60338   1.00
H2       0.65179    0.41777    0.52581   1.00
H2       0.72657    0.49536    0.52178   1.00
H2       0.71759    0.44750    0.54399   1.00
H2       0.57578    0.46462    0.56767   1.00
H2       0.57480    0.39856    0.55371   1.00
H2       0.63701    0.43922    0.57276   1.00
H2       0.76383    0.52097    0.58314   1.00
H2       0.84979    0.58621    0.58563   1.00
H2       0.78596    0.60037    0.59451   1.00
H2       0.82970    0.53659    0.54892   1.00
H2       0.83353    0.59520    0.53097   1.00
H2       0.89352    0.62279    0.55055   1.00
H2       0.75499    0.72963    0.48498   1.00
H2       0.71774    0.77161    0.47266   1.00
H2       0.68482    0.73127    0.49599   1.00
H2       0.71612    0.70532    0.44213   1.00
H2       0.74041    0.65268    0.45475   1.00
H2       0.66424    0.61682    0.44050   1.00
H2       0.50784    0.40366    0.46607   1.00
H2       0.55802    0.43579    0.48800   1.00
H2       0.47964    0.43489    0.48618   1.00
H2       0.53315    0.56804    0.44484   1.00
H2       0.49287    0.47931    0.44156   1.00
H2       0.46547    0.51310    0.46113   1.00
H2       0.61539    0.66667    0.52281   1.00
H2       0.52964    0.61570    0.53065   1.00
H2       0.58308    0.58064    0.52935   1.00
H2       0.47524    0.62977    0.50066   1.00
H2       0.55649    0.69149    0.49172   1.00
H2       0.49983    0.62348    0.47591   1.00
C4       0.31383    0.16876    0.50101   1.00
C4       0.36760    0.19336    0.48638   1.00
C3       0.31458    0.13704    0.51951   1.00
C3       0.42442    0.18314    0.48792   1.00
C3       0.25530    0.17504    0.49694   1.00
C3       0.36512    0.23046    0.46922   1.00
C2       0.20156    0.11734    0.52935   1.00
C2       0.47349    0.24336    0.45592   1.00
C3       0.25986    0.11167    0.53324   1.00
C3       0.47625    0.20799    0.47321   1.00
C3       0.20119    0.15027    0.51116   1.00
C3       0.41636    0.25252    0.45413   1.00
H1       0.35501    0.13163    0.52358   1.00
H1       0.42962    0.15699    0.49970   1.00
C5       0.25132    0.20628    0.47873   1.00
C5       0.31131    0.24486    0.46707   1.00
H1       0.26305    0.08877    0.54631   1.00
H1       0.51642    0.19959    0.47521   1.00
H1       0.16038    0.15683    0.50830   1.00
H1       0.41158    0.27517    0.44131   1.00
O3       0.19060    0.20211    0.47328   1.00
O3       0.31481    0.29163    0.45295   1.00
Si1      0.13780    0.14085    0.45832   1.00
Si1      0.35441    0.37233    0.45897   1.00
C6       0.06921    0.15665    0.46049   1.00
C6       0.17302    0.15969    0.43373   1.00
C6       0.11506    0.05875    0.46734   1.00
C6       0.39362    0.39635    0.48307   1.00
C6       0.41677    0.40984    0.43999   1.00
C6       0.29594    0.40145    0.45586   1.00
C6       0.05058    0.16713    0.48259   1.00
H2       0.08958    0.20627    0.45313   1.00
C6       -0.00089   0.10914    0.44981   1.00
H2       0.20543    0.21503    0.43435   1.00
C6       0.22086    0.13169    0.42721   1.00
C6       0.12424    0.14525    0.41525   1.00
H2       0.10255    0.06145    0.48320   1.00
C6       0.05011    -0.00321   0.45790   1.00
C6       0.16970    0.03527    0.46746   1.00
C6       0.34818    0.36353    0.50225   1.00
C6       0.46188    0.39643    0.48702   1.00
H2       0.40880    0.45027    0.48378   1.00
H2       0.45255    0.39223    0.44344   1.00
C6       0.39233    0.38573    0.41775   1.00
C6       0.45947    0.48948    0.43939   1.00
H2       0.29676    0.41071    0.43959   1.00
C6       0.21996    0.34932    0.46083   1.00
C6       0.31206    0.46982    0.46646   1.00
H2       0.09465    0.20779    0.49045   1.00
H2       0.03161    0.12053    0.49157   1.00
H2       0.01130    0.18176    0.48250   1.00
H2       -0.02433   0.13898    0.44505   1.00
H2       0.00402    0.08393    0.43642   1.00
H2       -0.03735   0.06945    0.45993   1.00
H2       0.25029    0.15833    0.41373   1.00
H2       0.25787    0.13926    0.43892   1.00
H2       0.19157    0.07746    0.42355   1.00
H2       0.09503    0.17137    0.41689   1.00
H2       0.15289    0.16394    0.40108   1.00
H2       0.08900    0.09064    0.41345   1.00
H2       0.05343    -0.00302   0.44137   1.00
H2       0.04272    -0.05212   0.46334   1.00
H2       0.00402    -0.00280   0.46221   1.00
H2       0.17127    0.01225    0.45307   1.00
H2       0.22101    0.07626    0.47048   1.00
H2       0.15741    -0.00317   0.47924   1.00
H2       0.34196    0.31363    0.50561   1.00
H2       0.37161    0.39552    0.51559   1.00
H2       0.29774    0.35779    0.50061   1.00
H2       0.48451    0.42141    0.50145   1.00
H2       0.45437    0.34515    0.48787   1.00
H2       0.50004    0.42451    0.47540   1.00
H2       0.43614    0.40264    0.40762   1.00
H2       0.36292    0.33014    0.41672   1.00
H2       0.36088    0.40594    0.41192   1.00
H2       0.48046    0.51090    0.45425   1.00
H2       0.50271    0.50639    0.42902   1.00
H2       0.42888    0.51142    0.43410   1.00
H2       0.21271    0.33378    0.47671   1.00
H2       0.18663    0.36997    0.45738   1.00
H2       0.20272    0.30386    0.45163   1.00
H2       0.27809    0.48758    0.46092   1.00
H2       0.30545    0.46359    0.48289   1.00
H2       0.36398    0.51043    0.46339   1.00
C4       0.83237    0.14599    0.50096   1.00
C4       0.80762    0.17491    0.48629   1.00
C3       0.87591    0.18349    0.51729   1.00
C3       0.82882    0.24542    0.48541   1.00
C3       0.81371    0.07595    0.49916   1.00
C3       0.75878    0.13141    0.47163   1.00
C2       0.88297    0.08467    0.52939   1.00
C2       0.75633    0.22968    0.45588   1.00
C3       0.90085    0.15383    0.53106   1.00
C3       0.80343    0.27200    0.47075   1.00
C3       0.83838    0.04665    0.51342   1.00
C3       0.73605    0.15965    0.45645   1.00
H1       0.89059    0.23339    0.51971   1.00
H1       0.86366    0.27962    0.49531   1.00
C5       0.77030    0.03558    0.48318   1.00
C5       0.73332    0.06012    0.47207   1.00
H1       0.93257    0.18359    0.54249   1.00
H1       0.82015    0.32331    0.47095   1.00
H1       0.82305    -0.00412   0.51227   1.00
H1       0.70446    0.12852    0.44530   1.00
O3       0.76164    -0.02817   0.47948   1.00
O3       0.67685    0.01588    0.46079   1.00
Si1      0.80987    -0.03727   0.46281   1.00
Si1      0.60107    -0.01050   0.47021   1.00
C6       0.78271    -0.12360   0.46804   1.00
C6       0.78284    -0.02772   0.43857   1.00
C6       0.89790    0.01536    0.46759   1.00
C6       0.59488    0.02130    0.49413   1.00
C6       0.56176    0.01413    0.45175   1.00
C6       0.55869    -0.10027   0.47071   1.00
C6       0.78010    -0.14257   0.49102   1.00
H2       0.72961    -0.14920   0.46306   1.00
C6       0.81569    -0.16140   0.45694   1.00
H2       0.72991    -0.04181   0.44141   1.00
C6       0.81717    0.04524    0.42900   1.00
C6       0.78022    -0.07563   0.42106   1.00
H2       0.90129    0.00694    0.48377   1.00
C6       0.94773    -0.00356   0.45670   1.00
C6       0.93206    0.09463    0.46460   1.00
C6       0.63217    0.01069    0.51253   1.00
C6       0.60837    0.09605    0.49587   1.00
H2       0.54060    -0.00993   0.49751   1.00
H2       0.58828    0.06958    0.45299   1.00
C6       0.57150    -0.00095   0.42919   1.00
C6       0.48413    -0.01107   0.45449   1.00
H2       0.54043    -0.11515   0.45519   1.00
C6       0.60384    -0.13300   0.47494   1.00
C6       0.49446    -0.13871   0.48466   1.00
H2       0.74852    -0.12784   0.49976   1.00
H2       0.83107    -0.11739   0.49773   1.00
H2       0.75791    -0.19757   0.49303   1.00
H2       0.77757    -0.21511   0.45474   1.00
H2       0.83620    -0.14002   0.44211   1.00
H2       0.85700    -0.16051   0.46573   1.00
H2       0.78674    0.04683    0.41635   1.00
H2       0.82153    0.08352    0.43981   1.00
H2       0.86784    0.06027    0.42313   1.00
H2       0.74845    -0.12926   0.42513   1.00
H2       0.75774    -0.06813   0.40730   1.00
H2       0.83128    -0.06575   0.41719   1.00
H2       0.93938    -0.00783   0.44032   1.00
H2       1.00125    0.03441    0.45942   1.00
H2       0.94181    -0.05120   0.46242   1.00
H2       0.94916    0.11003    0.44902   1.00
H2       0.89880    0.11457    0.46837   1.00
H2       0.97699    0.12102    0.47435   1.00
H2       0.68583    0.04982    0.51311   1.00
H2       0.60920    0.01358    0.52682   1.00
H2       0.62891    -0.03891   0.51217   1.00
H2       0.59327    0.10479    0.51084   1.00
H2       0.66196    0.13385    0.49393   1.00
H2       0.57886    0.10657    0.48486   1.00
H2       0.55559    0.02621    0.41882   1.00
H2       0.62500    0.01640    0.42584   1.00
H2       0.54169    -0.05519   0.42562   1.00
H2       0.47277    -0.00073   0.46972   1.00
H2       0.46801    0.01537    0.44390   1.00
H2       0.45292    -0.06568   0.45152   1.00
H2       0.62748    -0.11963   0.48990   1.00
H2       0.57450    -0.18855   0.47380   1.00
H2       0.64431    -0.11542   0.46375   1.00
H2       0.46698    -0.19334   0.48131   1.00
H2       0.50861    -0.13264   0.50068   1.00
H2       0.45849    -0.12060   0.48238   1.00
C4       0.69296    0.86042    0.00128   1.00
C4       0.63776    0.83172    0.01545   1.00
C3       0.74646    0.92939    0.00188   1.00
C3       0.62719    0.87052    0.03045   1.00
C3       0.69476    0.81856    -0.01462   1.00
C3       0.59020    0.76027    0.01478   1.00
C2       0.80097    0.91549    -0.02852   1.00
C2       0.52398    0.77016    0.04325   1.00
C3       0.79877    0.95631    -0.01267   1.00
C3       0.57225    0.84052    0.04409   1.00
C3       0.74867    0.84635    -0.02892   1.00
C3       0.53356    0.73156    0.02810   1.00
H1       0.74910    0.96202    0.01294   1.00
H1       0.65885    0.92178    0.03182   1.00
C5       0.64285    0.74915    -0.01607   1.00
C5       0.59897    0.71790    0.00073   1.00
H1       0.83582    1.00669    -0.01156   1.00
H1       0.56750    0.87099    0.05473   1.00
H1       0.75032    0.81523    -0.03991   1.00
H1       0.49760    0.68118    0.02657   1.00
O3       0.63839    0.71224    -0.03320   1.00
O3       0.56206    0.64767    0.00243   1.00
Si1      0.58855    0.70717    -0.05183   1.00
Si1      0.59002    0.60989    0.01751   1.00
C6       0.61520    0.66629    -0.06936   1.00
C6       0.50381    0.65256    -0.04395   1.00
C6       0.60556    0.78755    -0.06090   1.00
C6       0.66493    0.66115    0.03166   1.00
C6       0.52135    0.56435    0.03416   1.00
C6       0.59993    0.55048    0.00280   1.00
C6       0.69424    0.69777    -0.07165   1.00
H2       0.59709    0.61655    -0.06229   1.00
C6       0.58640    0.65078    -0.09158   1.00
H2       0.51025    0.62129    -0.03255   1.00
C6       0.46513    0.68460    -0.03303   1.00
C6       0.45165    0.60108    -0.05966   1.00
H2       0.66102    0.81470    -0.06253   1.00
C6       0.57646    0.78968    -0.08228   1.00
C6       0.58798    0.83363    -0.04726   1.00
C6       0.73127    0.71098    0.01982   1.00
C6       0.66181    0.70178    0.05047   1.00
H2       0.67538    0.62323    0.03836   1.00
H2       0.52041    0.60397    0.04333   1.00
C6       0.44903    0.52420    0.02417   1.00
C6       0.52665    0.51417    0.04935   1.00
H2       0.54846    0.50660    0.00180   1.00
C6       0.62274    0.57108    -0.01963   1.00
C6       0.64570    0.52256    0.01143   1.00
H2       0.71843    0.70074    -0.05706   1.00
H2       0.71796    0.74915    -0.07804   1.00
H2       0.70635    0.66656    -0.08156   1.00
H2       0.58281    0.60343    -0.09698   1.00
H2       0.53593    0.64502    -0.09280   1.00
H2       0.61951    0.69058    -0.10224   1.00
H2       0.41985    0.64530    -0.02521   1.00
H2       0.49641    0.72144    -0.02150   1.00
H2       0.44826    0.70960    -0.04384   1.00
H2       0.46956    0.56851    -0.06614   1.00
H2       0.40260    0.56678    -0.05249   1.00
H2       0.44218    0.62778    -0.07191   1.00
H2       0.52160    0.75426    -0.08306   1.00
H2       0.58537    0.84060    -0.08602   1.00
H2       0.60151    0.77739    -0.09425   1.00
H2       0.53550    0.82219    -0.04938   1.00
H2       0.59471    0.82893    -0.03119   1.00
H2       0.62112    0.88735    -0.05118   1.00
H2       0.73289    0.75867    0.01614   1.00
H2       0.77640    0.72403    0.02899   1.00
H2       0.73652    0.68871    0.00578   1.00
H2       0.70914    0.72290    0.05921   1.00
H2       0.65519    0.74445    0.04612   1.00
H2       0.62087    0.66945    0.06090   1.00
H2       0.40924    0.50750    0.03575   1.00
H2       0.44051    0.55620    0.01353   1.00
H2       0.44173    0.47905    0.01605   1.00
H2       0.57503    0.53858    0.05752   1.00
H2       0.48620    0.49668    0.06075   1.00
H2       0.52128    0.46912    0.04159   1.00
H2       0.67306    0.61648    -0.02070   1.00
H2       0.62377    0.52996    -0.02800   1.00
H2       0.58679    0.58178    -0.02735   1.00
H2       0.63939    0.47899    0.00254   1.00
H2       0.69969    0.56145    0.01103   1.00
H2       0.63225    0.50491    0.02703   1.00
C4       0.16876    0.31383    -0.00101   1.00
C4       0.19335    0.36760    0.01362   1.00
C3       0.13697    0.31455    -0.01950   1.00
C3       0.18308    0.42439    0.01209   1.00
C3       0.17510    0.25532    0.00305   1.00
C3       0.23052    0.36515    0.03077   1.00
C2       0.11734    0.20157    -0.02935   1.00
C2       0.24336    0.47348    0.04408   1.00
C3       0.11161    0.25984    -0.03323   1.00
C3       0.20793    0.47622    0.02680   1.00
C3       0.15033    0.20122    -0.01117   1.00
C3       0.25258    0.41639    0.04586   1.00
H1       0.13153    0.35496    -0.02357   1.00
H1       0.15688    0.42956    0.00032   1.00
C5       0.20639    0.25138    0.02126   1.00
C5       0.24497    0.31137    0.03291   1.00
H1       0.08866    0.26300    -0.04629   1.00
H1       0.19949    0.51636    0.02481   1.00
H1       0.15693    0.16043    -0.00831   1.00
H1       0.27527    0.41163    0.05868   1.00
O3       0.20228    0.19068    0.02670   1.00
O3       0.29179    0.31491    0.04702   1.00
Si1      0.14108    0.13785    0.04166   1.00
Si1      0.37247    0.35456    0.04098   1.00
C6       0.15693    0.06931    0.03948   1.00
C6       0.15996    0.17307    0.06626   1.00
C6       0.05894    0.11505    0.03267   1.00
C6       0.39641    0.39377    0.01687   1.00
C6       0.40999    0.41693    0.05996   1.00
C6       0.40167    0.29615    0.04407   1.00
C6       0.16739    0.05068    0.01737   1.00
H2       0.20658    0.08971    0.04683   1.00
C6       0.10949    -0.00081   0.05017   1.00
H2       0.21529    0.20552    0.06563   1.00
C6       0.13192    0.22088    0.07279   1.00
C6       0.14559    0.12431    0.08473   1.00
H2       0.06162    0.10255    0.01680   1.00
C6       -0.00297   0.05008    0.04212   1.00
C6       0.03541    0.16965    0.03256   1.00
C6       0.36357    0.34832    -0.00230   1.00
C6       0.39643    0.46201    0.01293   1.00
H2       0.45034    0.40899    0.01616   1.00
H2       0.39234    0.45268    0.05651   1.00
C6       0.38595    0.39248    0.08220   1.00
C6       0.48964    0.45968    0.06054   1.00
H2       0.41097    0.29697    0.06034   1.00
C6       0.34956    0.22015    0.03910   1.00
C6       0.47002    0.31231    0.03345   1.00
H2       0.20801    0.09477    0.00951   1.00
H2       0.12076    0.03168    0.00841   1.00
H2       0.18206    0.01144    0.01746   1.00
H2       0.13937    -0.02421   0.05492   1.00
H2       0.08430    0.00408    0.06356   1.00
H2       0.06979    -0.03729   0.04005   1.00
H2       0.15858    0.25031    0.08627   1.00
H2       0.13944    0.25787    0.06108   1.00
H2       0.07770    0.19155    0.07646   1.00
H2       0.17175    0.09513    0.08309   1.00
H2       0.16430    0.15296    0.09890   1.00
H2       0.09100    0.08904    0.08654   1.00
H2       -0.00274   0.05341    0.05865   1.00
H2       -0.05191   0.04265    0.03669   1.00
H2       -0.00253   0.00401    0.03780   1.00
H2       0.01242    0.17120    0.04696   1.00
H2       0.07637    0.22098    0.02954   1.00
H2       -0.00306   0.15733    0.02078   1.00
H2       0.31365    0.34207    -0.00565   1.00
H2       0.39552    0.37177    -0.01565   1.00
H2       0.35787    0.29790    -0.00066   1.00
H2       0.42137    0.48465    -0.00149   1.00
H2       0.34513    0.45446    0.01210   1.00
H2       0.42452    0.50018    0.02456   1.00
H2       0.40286    0.43629    0.09233   1.00
H2       0.33036    0.36304    0.08324   1.00
H2       0.40621    0.36106    0.08802   1.00
H2       0.51101    0.48067    0.04567   1.00
H2       0.50654    0.50292    0.07091   1.00
H2       0.51162    0.42912    0.06583   1.00
H2       0.33398    0.21289    0.02323   1.00
H2       0.37026    0.18685    0.04255   1.00
H2       0.30412    0.20288    0.04832   1.00
H2       0.48783    0.27837    0.03899   1.00
H2       0.46376    0.30570    0.01703   1.00
H2       0.51061    0.36425    0.03652   1.00
C4       0.14599    0.83237    -0.00096   1.00
C4       0.17491    0.80762    0.01371   1.00
C3       0.18349    0.87591    -0.01729   1.00
C3       0.24542    0.82882    0.01459   1.00
C3       0.07595    0.81371    0.00084   1.00
C3       0.13141    0.75878    0.02837   1.00
C2       0.08467    0.88297    -0.02939   1.00
C2       0.22968    0.75633    0.04412   1.00
C3       0.15383    0.90085    -0.03106   1.00
C3       0.27200    0.80343    0.02925   1.00
C3       0.04665    0.83838    -0.01342   1.00
C3       0.15965    0.73605    0.04355   1.00
H1       0.23339    0.89059    -0.01971   1.00
H1       0.27962    0.86366    0.00469   1.00
C5       0.03558    0.77030    0.01682   1.00
C5       0.06012    0.73332    0.02793   1.00
H1       0.18359    0.93257    -0.04249   1.00
H1       0.32331    0.82015    0.02905   1.00
H1       -0.00412   0.82305    -0.01227   1.00
H1       0.12852    0.70446    0.05470   1.00
O3       -0.02817   0.76164    0.02052   1.00
O3       0.01588    0.67685    0.03921   1.00
Si1      -0.03727   0.80987    0.03719   1.00
Si1      -0.01050   0.60107    0.02979   1.00
C6       -0.12360   0.78271    0.03196   1.00
C6       -0.02772   0.78284    0.06143   1.00
C6       0.01536    0.89790    0.03241   1.00
C6       0.02130    0.59488    0.00587   1.00
C6       0.01413    0.56176    0.04825   1.00
C6       -0.10027   0.55869    0.02929   1.00
C6       -0.14257   0.78010    0.00898   1.00
H2       -0.14920   0.72961    0.03694   1.00
C6       -0.16140   0.81569    0.04306   1.00
H2       -0.04181   0.72991    0.05859   1.00
C6       0.04524    0.81717    0.07100   1.00
C6       -0.07563   0.78022    0.07894   1.00
H2       0.00694    0.90129    0.01623   1.00
C6       -0.00356   0.94773    0.04330   1.00
C6       0.09463    0.93206    0.03540   1.00
C6       0.01069    0.63217    -0.01253   1.00
C6       0.09605    0.60837    0.00413   1.00
H2       -0.00993   0.54060    0.00249   1.00
H2       0.06958    0.58828    0.04702   1.00
C6       -0.00095   0.57150    0.07081   1.00
C6       -0.01107   0.48413    0.04551   1.00
H2       -0.11515   0.54043    0.04481   1.00
C6       -0.13300   0.60384    0.02506   1.00
C6       -0.13871   0.49446    0.01534   1.00
H2       -0.12784   0.74852    0.00024   1.00
H2       -0.11739   0.83107    0.00227   1.00
H2       -0.19757   0.75792    0.00697   1.00
H2       -0.21511   0.77757    0.04526   1.00
H2       -0.14002   0.83620    0.05789   1.00
H2       -0.16051   0.85700    0.03427   1.00
H2       0.04683    0.78674    0.08365   1.00
H2       0.08352    0.82153    0.06019   1.00
H2       0.06027    0.86784    0.07687   1.00
H2       -0.12926   0.74845    0.07487   1.00
H2       -0.06813   0.75774    0.09270   1.00
H2       -0.06575   0.83128    0.08281   1.00
H2       -0.00783   0.93938    0.05968   1.00
H2       0.03441    1.00125    0.04058   1.00
H2       -0.05120   0.94181    0.03758   1.00
H2       0.11004    0.94916    0.05098   1.00
H2       0.11457    0.89880    0.03163   1.00
H2       0.12102    0.97699    0.02565   1.00
H2       0.04982    0.68583    -0.01311   1.00
H2       0.01358    0.60920    -0.02682   1.00
H2       -0.03891   0.62891    -0.01217   1.00
H2       0.10479    0.59327    -0.01084   1.00
H2       0.13385    0.66196    0.00607   1.00
H2       0.10657    0.57886    0.01514   1.00
H2       0.02621    0.55559    0.08118   1.00
H2       0.01640    0.62500    0.07416   1.00
H2       -0.05519   0.54169    0.07438   1.00
H2       -0.00073   0.47277    0.03028   1.00
H2       0.01537    0.46801    0.05610   1.00
H2       -0.06568   0.45292    0.04848   1.00
H2       -0.11963   0.62748    0.01010   1.00
H2       -0.18855   0.57450    0.02620   1.00
H2       -0.11542   0.64431    0.03625   1.00
H2       -0.19334   0.46698    0.01869   1.00
H2       -0.13264   0.50861    -0.00068   1.00
H2       -0.12060   0.45849    0.01762   1.00
C4       0.13964    0.31212    0.49962   1.00
C4       0.16832    0.36573    0.51431   1.00
C3       0.07094    0.28091    0.49291   1.00
C3       0.12967    0.38917    0.52508   1.00
C3       0.18122    0.28718    0.49130   1.00
C3       0.23960    0.39826    0.51856   1.00
C2       0.08454    0.20167    0.47062   1.00
C2       0.22981    0.47338    0.54411   1.00
C3       0.04400    0.22696    0.47890   1.00
C3       0.15965    0.44195    0.53944   1.00
C3       0.15343    0.23357    0.47690   1.00
C3       0.26824    0.44933    0.53370   1.00
H1       0.03852    0.29663    0.49795   1.00
H1       0.07854    0.36832    0.52291   1.00
C5       0.25036    0.31617    0.49736   1.00
C5       0.28184    0.37934    0.50784   1.00
H1       -0.00619   0.20605    0.47472   1.00
H1       0.12931    0.45719    0.54664   1.00
H1       0.18438    0.21749    0.47064   1.00
H1       0.31842    0.46906    0.53749   1.00
O3       0.28684    0.28483    0.49197   1.00
O3       0.35210    0.41869    0.50874   1.00
Si1      0.29067    0.23057    0.50746   1.00
Si1      0.39099    0.48355    0.49340   1.00
C6       0.33152    0.20153    0.49071   1.00
C6       0.34484    0.27772    0.52766   1.00
C6       0.20970    0.16350    0.51479   1.00
C6       0.34084    0.50213    0.47690   1.00
C6       0.43653    0.55245    0.50997   1.00
C6       0.45037    0.47151    0.47938   1.00
C6       0.30076    0.18238    0.46879   1.00
H2       0.38159    0.24696    0.48883   1.00
C6       0.34600    0.14314    0.49707   1.00
H2       0.37678    0.32746    0.52065   1.00
C6       0.31250    0.29139    0.54678   1.00
C6       0.39543    0.25577    0.53624   1.00
H2       0.18301    0.14737    0.50027   1.00
C6       0.20644    0.09847    0.52427   1.00
C6       0.16360    0.17891    0.52915   1.00
C6       0.29112    0.44497    0.46205   1.00
C6       0.30058    0.53614    0.48559   1.00
H2       0.37935    0.54171    0.46720   1.00
H2       0.39698    0.55888    0.51734   1.00
C6       0.47567    0.54048    0.52761   1.00
C6       0.48762    0.62296    0.50031   1.00
H2       0.49384    0.48872    0.48961   1.00
C6       0.42915    0.39636    0.47411   1.00
C6       0.47933    0.51327    0.45932   1.00
H2       0.29859    0.22468    0.46159   1.00
H2       0.24914    0.13838    0.46905   1.00
H2       0.33197    0.16999    0.45898   1.00
H2       0.39340    0.15150    0.49011   1.00
H2       0.35112    0.14015    0.51337   1.00
H2       0.30599    0.09302    0.49198   1.00
H2       0.35175    0.33234    0.55601   1.00
H2       0.27623    0.30765    0.54272   1.00
H2       0.28676    0.24610    0.55634   1.00
H2       0.42820    0.25438    0.52434   1.00
H2       0.42959    0.29206    0.54759   1.00
H2       0.36803    0.20576    0.54349   1.00
H2       0.24137    0.11184    0.53709   1.00
H2       0.15519    0.06178    0.52963   1.00
H2       0.21870    0.07094    0.51311   1.00
H2       0.17437    0.17612    0.54514   1.00
H2       0.16897    0.22866    0.52670   1.00
H2       0.10982    0.14138    0.52667   1.00
H2       0.24303    0.40977    0.46938   1.00
H2       0.27888    0.46724    0.44913   1.00
H2       0.31310    0.41559    0.45592   1.00
H2       0.28022    0.55308    0.47326   1.00
H2       0.25741    0.50118    0.49487   1.00
H2       0.33296    0.58135    0.49462   1.00
H2       0.49238    0.58107    0.53893   1.00
H2       0.44300    0.49248    0.53549   1.00
H2       0.52073    0.53958    0.52218   1.00
H2       0.46395    0.63660    0.48816   1.00
H2       0.50511    0.66340    0.51171   1.00
H2       0.53260    0.62316    0.49425   1.00
H2       0.38406    0.37224    0.46445   1.00
H2       0.47024    0.39305    0.46648   1.00
H2       0.41766    0.36658    0.48794   1.00
H2       0.52278    0.50936    0.45378   1.00
H2       0.44087    0.49464    0.44733   1.00
H2       0.49747    0.56735    0.46160   1.00
C4       0.68934    0.82770    0.50011   1.00
C4       0.63557    0.80311    0.51474   1.00
C3       0.73743    0.80498    0.49896   1.00
C3       0.62827    0.75811    0.53079   1.00
C3       0.69657    0.87862    0.48597   1.00
C3       0.58589    0.82416    0.51338   1.00
C2       0.79867    0.88240    0.47074   1.00
C2       0.52628    0.75690    0.54399   1.00
C3       0.79082    0.83182    0.48476   1.00
C3       0.57478    0.73512    0.54491   1.00
C3       0.75002    0.90413    0.47151   1.00
C3       0.53409    0.80272    0.52827   1.00
H1       0.73492    0.76809    0.50836   1.00
H1       0.66182    0.74105    0.53278   1.00
C5       0.65019    0.90353    0.48630   1.00
C5       0.58842    0.86694    0.49732   1.00
H1       0.82435    0.81378    0.48473   1.00
H1       0.57171    0.70215    0.55609   1.00
H1       0.75344    0.93926    0.46110   1.00
H1       0.50155    0.82170    0.52784   1.00
O3       0.66383    0.96021    0.47502   1.00
O3       0.53405    0.87689    0.49338   1.00
Si1      0.70383    1.03573    0.48543   1.00
Si1      0.47163    0.82163    0.47925   1.00
C6       0.71558    1.08330    0.46308   1.00
C6       0.64620    1.04188    0.50207   1.00
C6       0.78273    1.05521    0.49636   1.00
C6       0.47526    0.74985    0.47036   1.00
C6       0.39997    0.79449    0.49492   1.00
C6       0.46349    0.86677    0.45870   1.00
C6       0.74352    1.06245    0.44428   1.00
H2       0.66333    1.06923    0.45912   1.00
C6       0.75650    1.16335    0.46340   1.00
H2       0.59706    1.00519    0.49551   1.00
C6       0.64359    1.01945    0.52465   1.00
C6       0.64606    1.11086    0.50318   1.00
H2       0.80604    1.04047    0.48434   1.00
C6       0.83434    1.13204    0.50107   1.00
C6       0.78382    1.01656    0.51604   1.00
C6       0.53876    0.76254    0.45759   1.00
C6       0.46034    0.69029    0.48536   1.00
H2       0.43238    0.72681    0.45982   1.00
H2       0.40690    0.76447    0.50664   1.00
C6       0.39455    0.85189    0.50656   1.00
C6       0.32839    0.74704    0.48527   1.00
H2       0.43435    0.88909    0.46492   1.00
C6       0.53080    0.92857    0.45065   1.00
C6       0.42325    0.82531    0.43953   1.00
H2       0.71147    1.00838    0.44070   1.00
H2       0.79534    1.07241    0.44697   1.00
H2       0.74435    1.09067    0.43073   1.00
H2       0.73519    1.18340    0.45227   1.00
H2       0.75522    1.18451    0.47808   1.00
H2       0.81003    1.18401    0.45933   1.00
H2       0.59709    1.01184    0.53207   1.00
H2       0.64301    0.97125    0.52588   1.00
H2       0.68685    1.05810    0.53327   1.00
H2       0.63789    1.12642    0.48826   1.00
H2       0.60467    1.10637    0.51282   1.00
H2       0.69390    1.15142    0.50945   1.00
H2       0.81074    1.15446    0.51040   1.00
H2       0.87961    1.13872    0.50908   1.00
H2       0.85357    1.16158    0.48722   1.00
H2       0.78058    1.04144    0.52983   1.00
H2       0.74281    0.96407    0.51668   1.00
H2       0.83154    1.01549    0.51683   1.00
H2       0.58157    0.77163    0.46723   1.00
H2       0.52662    0.71795    0.44826   1.00
H2       0.55566    0.80567    0.44733   1.00
H2       0.45502    0.64601    0.47708   1.00
H2       0.50113    0.70447    0.49633   1.00
H2       0.41273    0.67275    0.49362   1.00
H2       0.35545    0.82972    0.51837   1.00
H2       0.44244    0.88688    0.51415   1.00
H2       0.38120    0.88163    0.49648   1.00
H2       0.32676    0.70405    0.47728   1.00
H2       0.28914    0.72569    0.49706   1.00
H2       0.31425    0.77498    0.47468   1.00
H2       0.56588    0.91309    0.44466   1.00
H2       0.52092    0.95611    0.43876   1.00
H2       0.55656    0.96453    0.46288   1.00
H2       0.41282    0.85705    0.42931   1.00
H2       0.45209    0.80674    0.43100   1.00
H2       0.37405    0.78165    0.44357   1.00
C4       0.17233    0.86160    0.50009   1.00
C4       0.19694    0.83244    0.51472   1.00
C3       0.19598    0.93255    0.49868   1.00
C3       0.24295    0.87043    0.53054   1.00
C3       0.12043    0.81775    0.48621   1.00
C3       0.17482    0.76142    0.51361   1.00
C2       0.11758    0.91623    0.47073   1.00
C2       0.24312    0.76942    0.54400   1.00
C3       0.16912    0.95911    0.48449   1.00
C3       0.26592    0.83995    0.54467   1.00
C3       0.09491    0.84568    0.47175   1.00
C3       0.19630    0.73114    0.52851   1.00
H1       0.23357    0.96703    0.50788   1.00
H1       0.26080    0.92126    0.53234   1.00
C5       0.09457    0.74631    0.48680   1.00
C5       0.13096    0.72081    0.49778   1.00
H1       0.18786    1.01081    0.48428   1.00
H1       0.29965    0.87006    0.55567   1.00
H1       0.05905    0.81381    0.46153   1.00
H1       0.17661    0.67950    0.52827   1.00
O3       0.03712    0.70335    0.47580   1.00
O3       0.11985    0.65596    0.49404   1.00
Si1      -0.03784   0.66928    0.48653   1.00
Si1      0.17384    0.64717    0.47977   1.00
C6       -0.08669   0.63293    0.46441   1.00
C6       -0.04420   0.60584    0.50335   1.00
C6       -0.05565   0.73001    0.49735   1.00
C6       0.24583    0.72159    0.47047   1.00
C6       0.20076    0.60255    0.49548   1.00
C6       0.12720    0.59325    0.45950   1.00
C6       -0.06611   0.68091    0.44542   1.00
H2       -0.07355   0.59403    0.46051   1.00
C6       -0.16669   0.59483    0.46506   1.00
H2       -0.00835   0.59238    0.49672   1.00
C6       -0.02054   0.62648    0.52581   1.00
C6       -0.11368   0.53737    0.50484   1.00
H2       -0.04099   0.76756    0.48519   1.00
C6       -0.13202   0.70608    0.50235   1.00
C6       -0.01572   0.77034    0.51681   1.00
C6       0.23347    0.77243    0.45761   1.00
C6       0.30634    0.76628    0.48517   1.00
H2       0.26783    0.70071    0.45992   1.00
H2       0.23170    0.63984    0.50701   1.00
C6       0.14337    0.54072    0.50745   1.00
C6       0.24694    0.57699    0.48576   1.00
H2       0.10452    0.54205    0.46591   1.00
C6       0.06563    0.59948    0.45161   1.00
C6       0.16741    0.59292    0.44021   1.00
H2       -0.01231   0.70204    0.44162   1.00
H2       -0.07517   0.72340    0.44803   1.00
H2       -0.09520   0.65314    0.43202   1.00
H2       -0.18779   0.55297    0.45411   1.00
H2       -0.18733   0.57324    0.47986   1.00
H2       -0.18682   0.62813    0.46097   1.00
H2       -0.01329   0.58749    0.53331   1.00
H2       0.02810    0.67375    0.52677   1.00
H2       -0.05837   0.63218    0.53453   1.00
H2       -0.13023   0.51302    0.49004   1.00
H2       -0.10938   0.50053    0.51456   1.00
H2       -0.15348   0.54567    0.51121   1.00
H2       -0.15456   0.66049    0.51186   1.00
H2       -0.13761   0.74548    0.51028   1.00
H2       -0.16215   0.69554    0.48861   1.00
H2       -0.04019   0.74304    0.53075   1.00
H2       0.03654    0.78106    0.51727   1.00
H2       -0.01381   0.81954    0.51747   1.00
H2       0.22549    0.80703    0.46718   1.00
H2       0.27777    0.80397    0.44806   1.00
H2       0.18978    0.74624    0.44754   1.00
H2       0.35050    0.80444    0.47667   1.00
H2       0.29326    0.79385    0.49612   1.00
H2       0.32364    0.73606    0.49347   1.00
H2       0.16564    0.52382    0.51924   1.00
H2       0.10925    0.55464    0.51511   1.00
H2       0.11268    0.49730    0.49758   1.00
H2       0.28987    0.61759    0.47753   1.00
H2       0.26839    0.55913    0.49752   1.00
H2       0.21803    0.53454    0.47536   1.00
H2       0.08153    0.64992    0.44544   1.00
H2       0.03714    0.56167    0.43990   1.00
H2       0.03040    0.59035    0.46397   1.00
H2       0.13474    0.55046    0.43019   1.00
H2       0.18620    0.64001    0.43150   1.00
H2       0.21080    0.58679    0.44414   1.00
C4       0.30992    0.14716    0.99976   1.00
C4       0.36503    0.17562    0.98556   1.00
C3       0.29767    0.18663    1.01409   1.00
C3       0.41687    0.24534    0.98550   1.00
C3       0.26482    0.07514    0.99999   1.00
C3       0.36904    0.13255    0.97047   1.00
C2       0.19937    0.08540    1.02864   1.00
C2       0.47568    0.22895    0.95663   1.00
C3       0.24418    0.15662    1.02821   1.00
C3       0.47033    0.27144    0.97131   1.00
C3       0.21038    0.04598    1.01411   1.00
C3       0.42491    0.15924    0.95688   1.00
H1       0.32711    0.23837    1.01464   1.00
H1       0.41756    0.27912    0.99583   1.00
C5       0.27420    0.03275    0.98606   1.00
C5       0.31771    0.06301    0.96912   1.00
H1       0.23810    0.18769    1.03831   1.00
H1       0.50605    0.32240    0.97188   1.00
H1       0.17731    -0.00554   1.01372   1.00
H1       0.42939    0.12684    0.94702   1.00
O3       0.23809    -0.03702   0.98851   1.00
O3       0.31311    0.02409    0.95240   1.00
Si1      0.27160    -0.07492   1.00122   1.00
Si1      0.27171    0.02651    0.93246   1.00
C6       0.19827    -0.15676   1.00187   1.00
C6       0.33586    -0.07415   0.98594   1.00
C6       0.29774    -0.04182   1.02591   1.00
C6       0.23714    0.08132    0.93290   1.00
C6       0.33277    0.05205    0.91306   1.00
C6       0.20714    -0.05781   0.92739   1.00
C6       0.13022    -0.15934   1.00813   1.00
H2       0.19182    -0.17160   0.98591   1.00
C6       0.19826    -0.21700   1.01366   1.00
H2       0.31890    -0.07055   0.97073   1.00
C6       0.41016    -0.01251   0.98791   1.00
C6       0.34380    -0.13894   0.98564   1.00
H2       0.25334    -0.03989   1.03154   1.00
C6       0.31062    -0.08661   1.04142   1.00
C6       0.36082    0.03176    1.02874   1.00
C6       0.18609    0.07172    0.95028   1.00
C6       0.28567    0.16011    0.93052   1.00
H2       0.20682    0.06702    0.91902   1.00
H2       0.36899    0.10520    0.91665   1.00
C6       0.37589    0.01543    0.91248   1.00
C6       0.30810    0.05130    0.89086   1.00
H2       0.23349    -0.07997   0.91930   1.00
C6       0.17427    -0.10482   0.94619   1.00
C6       0.14654    -0.06885   0.91340   1.00
H2       0.11963    -0.12656   0.99846   1.00
H2       0.13226    -0.14299   1.02384   1.00
H2       0.08663    -0.21092   1.00665   1.00
H2       0.16549    -0.26528   1.00591   1.00
H2       0.24870    -0.21134   1.01487   1.00
H2       0.17818    -0.22257   1.02904   1.00
H2       0.44122    -0.01061   0.97494   1.00
H2       0.41139    0.03614    0.98814   1.00
H2       0.43498    -0.01664   1.00159   1.00
H2       0.29621    -0.18441   0.98139   1.00
H2       0.38171    -0.13395   0.97445   1.00
H2       0.36024    -0.14733   1.00041   1.00
H2       0.34654    -0.10099   1.03534   1.00
H2       0.33115    -0.06009   1.05581   1.00
H2       0.26344    -0.13252   1.04538   1.00
H2       0.40883    0.03140    1.02923   1.00
H2       0.36572    0.06702    1.01687   1.00
H2       0.35645    0.05366    1.04306   1.00
H2       0.21254    0.09785    0.96412   1.00
H2       0.15401    0.09298    0.94583   1.00
H2       0.15203    0.01822    0.95389   1.00
H2       0.25613    0.18577    0.92822   1.00
H2       0.31719    0.18292    0.94388   1.00
H2       0.31911    0.17272    0.91738   1.00
H2       0.41959    0.04239    0.90231   1.00
H2       0.39635    0.01483    0.92744   1.00
H2       0.34605    -0.03709   0.90716   1.00
H2       0.27906    0.07774    0.88968   1.00
H2       0.35181    0.07738    0.88064   1.00
H2       0.27655    -0.00072   0.88526   1.00
H2       0.14822    -0.08643   0.95604   1.00
H2       0.13773    -0.15708   0.94171   1.00
H2       0.21350    -0.10693   0.95509   1.00
H2       0.11592    -0.12238   0.90892   1.00
H2       0.11275    -0.05463   0.92111   1.00
H2       0.16452    -0.03930   0.89944   1.00
C4       0.82809    0.69007    0.99964   1.00
C4       0.80360    0.63618    0.98506   1.00
C3       0.81491    0.74505    0.99857   1.00
C3       0.76887    0.63513    0.96701   1.00
C3       0.86899    0.69007    1.01612   1.00
C3       0.81394    0.57979    0.98856   1.00
C2       0.88229    0.79889    1.02919   1.00
C2       0.75701    0.52606    0.95608   1.00
C3       0.84155    0.79818    1.01286   1.00
C3       0.74563    0.58130    0.95301   1.00
C3       0.89433    0.74347    1.03059   1.00
C3       0.79271    0.52751    0.97384   1.00
H1       0.78536    0.74798    0.98742   1.00
H1       0.75979    0.67364    0.96344   1.00
C5       0.88406    0.63658    1.01809   1.00
C5       0.84590    0.57607    1.00662   1.00
H1       0.83072    0.83686    1.01123   1.00
H1       0.72030    0.58299    0.94030   1.00
H1       0.92200    0.74180    1.04264   1.00
H1       0.80435    0.48975    0.97595   1.00
O3       0.93242    0.64248    1.03189   1.00
O3       0.84435    0.51646    1.01219   1.00
Si1      1.01144    0.67323    1.02468   1.00
Si1      0.77834    0.45864    1.02461   1.00
C6       1.04649    0.67873    1.04899   1.00
C6       1.01489    0.61035    1.00979   1.00
C6       1.04651    0.75433    1.01320   1.00
C6       0.71040    0.47392    1.02958   1.00
C6       0.74911    0.38600    1.00924   1.00
C6       0.80875    0.44322    1.04745   1.00
C6       1.02405    0.71220    1.06589   1.00
H2       1.02363    0.62515    1.05329   1.00
C6       1.12535    0.70993    1.05197   1.00
H2       0.97104    0.56369    1.01541   1.00
C6       1.00408    0.61068    0.98636   1.00
C6       1.07748    0.59938    1.01229   1.00
H2       1.03178    0.78177    1.02382   1.00
C6       1.12611    0.79739    1.01144   1.00
C6       1.02042    0.76121    0.99172   1.00
C6       0.72656    0.54004    1.04150   1.00
C6       0.66086    0.46703    1.01198   1.00
H2       0.67814    0.43188    1.03972   1.00
H2       0.72829    0.39791    0.99595   1.00
C6       0.80499    0.37101    1.00084   1.00
C6       0.69059    0.31708    1.01785   1.00
H2       0.82684    0.40847    1.04309   1.00
C6       0.87182    0.50565    1.05718   1.00
C6       0.75657    0.40704    1.06509   1.00
H2       0.96861    0.68647    1.06730   1.00
H2       1.04258    0.76599    1.06264   1.00
H2       1.04372    0.70891    1.08074   1.00
H2       1.13512    0.68421    1.06447   1.00
H2       1.15058    0.70499    1.03859   1.00
H2       1.15085    0.76400    1.05592   1.00
H2       0.99293    0.56202    0.97963   1.00
H2       0.96110    0.61759    0.98265   1.00
H2       1.04964    0.65072    0.97892   1.00
H2       1.08370    0.58848    1.02801   1.00
H2       1.07093    0.55567    1.00341   1.00
H2       1.12448    0.64406    1.00717   1.00
H2       1.14654    0.76848    1.00390   1.00
H2       1.14293    0.84460    1.00290   1.00
H2       1.14981    0.81356    1.02626   1.00
H2       1.04830    0.75360    0.97945   1.00
H2       0.96678    0.72557    0.98923   1.00
H2       1.02752    0.81237    0.98986   1.00
H2       0.74586    0.58421    1.03153   1.00
H2       0.68038    0.53421    1.04866   1.00
H2       0.76368    0.55154    1.05353   1.00
H2       0.61651    0.46843    1.01797   1.00
H2       0.68500    0.50822    1.00100   1.00
H2       0.64094    0.41873    1.00392   1.00
H2       0.78383    0.33247    0.98886   1.00
H2       0.84756    0.41659    0.99414   1.00
H2       0.82524    0.35225    1.01264   1.00
H2       0.64813    0.32221    1.02354   1.00
H2       0.67013    0.27826    1.00593   1.00
H2       0.70887    0.29778    1.03007   1.00
H2       0.86094    0.54568    1.06155   1.00
H2       0.88985    0.49098    1.07058   1.00
H2       0.91369    0.52733    1.04641   1.00
H2       0.77903    0.39110    1.07707   1.00
H2       0.74080    0.44093    1.07194   1.00
H2       0.71104    0.36121    1.05988   1.00
C4       0.86160    0.17234    0.99992   1.00
C4       0.83244    0.19694    0.98528   1.00
C3       0.93256    0.19610    1.00136   1.00
C3       0.87046    0.24308    0.96949   1.00
C3       0.81772    0.12031    1.01376   1.00
C3       0.76138    0.17469    0.98636   1.00
C2       0.91622    0.11758    1.02927   1.00
C2       0.76943    0.24312    0.95600   1.00
C3       0.95913    0.16924    1.01555   1.00
C3       0.83999    0.26606    0.95536   1.00
C3       0.84566    0.09479    1.02821   1.00
C3       0.73112    0.19617    0.97146   1.00
H1       0.96705    0.23379    0.99219   1.00
H1       0.92132    0.26103    0.96772   1.00
C5       0.74627    0.09433    1.01314   1.00
C5       0.72073    0.13069    1.00216   1.00
H1       1.01083    0.18807    1.01578   1.00
H1       0.87012    0.29988    0.94438   1.00
H1       0.81377    0.05883    1.03842   1.00
H1       0.67945    0.17639    0.97167   1.00
O3       0.70332    0.03678    1.02409   1.00
O3       0.65581    0.11943    1.00588   1.00
Si1      0.66944    -0.03811   1.01333   1.00
Si1      0.64681    0.17325    1.02016   1.00
C6       0.63302    -0.08712   1.03542   1.00
C6       0.60604    -0.04449   0.99649   1.00
C6       0.73033    -0.05570   1.00252   1.00
C6       0.72110    0.24527    1.02951   1.00
C6       0.60218    0.20015    1.00444   1.00
C6       0.59281    0.12642    1.04040   1.00
C6       0.68089    -0.06657   1.05443   1.00
H2       0.59403    -0.07411   1.03931   1.00
C6       0.59506    -0.16711   1.03472   1.00
H2       0.59245    -0.00875   1.00313   1.00
C6       0.62679    -0.02068   0.97404   1.00
C6       0.53766    -0.11404   0.99494   1.00
H2       0.76783    -0.04105   1.01470   1.00
C6       0.70658    -0.13201   0.99748   1.00
C6       0.77074    -0.01560   0.98309   1.00
C6       0.77195    0.23296    1.04238   1.00
C6       0.76580    0.30591    1.01485   1.00
H2       0.70009    0.26714    1.04007   1.00
H2       0.63951    0.23121    0.99294   1.00
C6       0.54047    0.14276    0.99243   1.00
C6       0.57643    0.24617    1.01418   1.00
H2       0.54164    0.10370    1.03395   1.00
C6       0.59913    0.06488    1.04826   1.00
C6       0.59228    0.16647    1.05970   1.00
H2       0.70191    -0.01281   1.05826   1.00
H2       0.72346    -0.07551   1.05183   1.00
H2       0.65308    -0.09578   1.06781   1.00
H2       0.55313    -0.18834   1.04566   1.00
H2       0.57358    -0.18768   1.01991   1.00
H2       0.62842    -0.18718   1.03881   1.00
H2       0.58779    -0.01347   0.96653   1.00
H2       0.67401    0.02802    0.97311   1.00
H2       0.63263    -0.05840   0.96531   1.00
H2       0.51323    -0.13071   1.00974   1.00
H2       0.50083    -0.10976   0.98521   1.00
H2       0.54609    -0.15373   0.98856   1.00
H2       0.66105    -0.15456   0.98795   1.00
H2       0.74607    -0.13746   0.98957   1.00
H2       0.69601    -0.16222   1.01121   1.00
H2       0.74354    -0.04002   0.96913   1.00
H2       0.78136    0.03663    0.98266   1.00
H2       0.81999    -0.01359   0.98245   1.00
H2       0.80665    0.22511    1.03282   1.00
H2       0.80336    0.27721    1.05196   1.00
H2       0.74576    0.18919    1.05243   1.00
H2       0.80385    0.35004    1.02338   1.00
H2       0.79349    0.29296    1.00391   1.00
H2       0.73555    0.32317    1.00655   1.00
H2       0.52358    0.16504    0.98065   1.00
H2       0.55453    0.10876    0.98477   1.00
H2       0.49702    0.11195    1.00228   1.00
H2       0.61694    0.28908    1.02243   1.00
H2       0.55858    0.26762    1.00241   1.00
H2       0.53394    0.21713    1.02455   1.00
H2       0.64956    0.08084    1.05446   1.00
H2       0.56128    0.03627    1.05995   1.00
H2       0.59015    0.02975    1.03589   1.00
H2       0.54978    0.13369    1.06969   1.00
H2       0.63933    0.18528    1.06844   1.00
H2       0.58607    0.20982    1.05579   1.00
C4       0.52129    1.01955    0.83433   1.00
C4       0.49220    0.96581    0.81969   1.00
C3       0.48691    1.02081    0.85219   1.00
C3       0.42374    0.91127    0.82050   1.00
C3       0.58809    1.07595    0.83093   1.00
C3       0.53336    0.96593    0.80327   1.00
C2       0.58231    1.13172    0.86269   1.00
C2       0.43668    0.85989    0.78924   1.00
C3       0.51637    1.07550    0.86593   1.00
C3       0.39690    0.85940    0.80580   1.00
C3       0.61742    1.13002    0.84516   1.00
C3       0.50448    0.91480    0.78816   1.00
H1       0.43954    0.98193    0.85578   1.00
H1       0.39123    0.90783    0.83171   1.00
C5       0.62526    1.07785    0.81337   1.00
C5       0.60288    1.01732    0.80191   1.00
H1       0.48888    1.07385    0.87851   1.00
H1       0.34722    0.82092    0.80726   1.00
H1       0.66611    1.16922    0.84281   1.00
H1       0.53332    0.91801    0.77582   1.00
O3       0.68439    1.13695    0.80842   1.00
O3       0.64679    1.01112    0.78866   1.00
Si1      0.68155    1.19150    0.79282   1.00
Si1      0.68340    0.96818    0.79584   1.00
C6       0.76692    1.25719    0.79592   1.00
C6       0.66747    1.15599    0.76829   1.00
C6       0.62394    1.21831    0.80048   1.00
C6       0.66269    0.92903    0.81999   1.00
C6       0.65868    0.90533    0.77701   1.00
C6       0.77211    1.02323    0.79383   1.00
C6       0.79278    1.27492    0.81837   1.00
H2       0.79523    1.23453    0.78932   1.00
C6       0.79450    1.32780    0.78501   1.00
H2       0.68773    1.12141    0.76966   1.00
C6       0.59223    1.11107    0.76081   1.00
C6       0.70641    1.20394    0.75002   1.00
H2       0.63693    1.23047    0.81648   1.00
C6       0.63204    1.28475    0.79048   1.00
C6       0.54509    1.16662    0.79964   1.00
C6       0.67456    0.97519    0.83894   1.00
C6       0.59209    0.86282    0.82330   1.00
H2       0.69925    0.91125    0.82158   1.00
H2       0.60436    0.87164    0.77979   1.00
C6       0.66386    0.93018    0.75458   1.00
C6       0.69211    0.85937    0.77753   1.00
H2       0.78278    1.02174    0.77775   1.00
C6       0.79882    1.09998    0.79851   1.00
C6       0.82017    1.00384    0.80556   1.00
H2       0.78572    1.22993    0.82657   1.00
H2       0.76571    1.29607    0.82662   1.00
H2       0.84728    1.31220    0.81891   1.00
H2       0.84821    1.34880    0.78104   1.00
H2       0.76711    1.32431    0.77112   1.00
H2       0.79190    1.36554    0.79471   1.00
H2       0.58994    1.08086    0.74757   1.00
H2       0.55977    1.07485    0.77230   1.00
H2       0.57033    1.14253    0.75640   1.00
H2       0.76145    1.23083    0.75242   1.00
H2       0.69730    1.17492    0.73597   1.00
H2       0.68994    1.24121    0.74752   1.00
H2       0.63137    1.28134    0.77395   1.00
H2       0.59139    1.29476    0.79505   1.00
H2       0.67907    1.32951    0.79522   1.00
H2       0.52341    1.16625    0.78482   1.00
H2       0.53167    1.11453    0.80295   1.00
H2       0.51863    1.18085    0.81079   1.00
H2       0.63207    0.98409    0.84141   1.00
H2       0.67943    0.95078    0.85265   1.00
H2       0.72102    1.02445    0.83766   1.00
H2       0.59083    0.83960    0.83796   1.00
H2       0.54998    0.87302    0.82324   1.00
H2       0.58194    0.82407    0.81187   1.00
H2       0.63685    0.88659    0.74437   1.00
H2       0.64033    0.96185    0.75277   1.00
H2       0.71663    0.95949    0.74943   1.00
H2       0.68902    0.83796    0.79258   1.00
H2       0.66571    0.81634    0.76709   1.00
H2       0.74559    0.88776    0.77294   1.00
H2       0.78874    1.10807    0.81414   1.00
H2       0.85358    1.13112    0.79577   1.00
H2       0.77390    1.11919    0.78862   1.00
H2       0.87311    1.03574    0.80068   1.00
H2       0.81837    1.01078    0.82191   1.00
H2       0.80670    0.95111    0.80278   1.00
C4       -0.01971   0.50096    0.83429   1.00
C4       0.03396    0.52571    0.81962   1.00
C3       -0.02573   0.45744    0.85063   1.00
C3       0.08328    0.50453    0.81874   1.00
C3       -0.07110   0.51960    0.83248   1.00
C3       0.03928    0.57453    0.80496   1.00
C2       -0.13164   0.45036    0.86272   1.00
C2       0.14003    0.57700    0.78921   1.00
C3       -0.08034   0.43251    0.86439   1.00
C3       0.13525    0.52992    0.80408   1.00
C3       -0.12508   0.49493    0.84675   1.00
C3       0.09026    0.59726    0.78978   1.00
H1       0.00950    0.44278    0.85305   1.00
H1       0.08266    0.46971    0.82865   1.00
C5       -0.06808   0.56298    0.81650   1.00
C5       -0.00656   0.59997    0.80539   1.00
H1       -0.08228   0.40080    0.87582   1.00
H1       0.16986    0.51321    0.80429   1.00
H1       -0.16053   0.51025    0.84560   1.00
H1       0.09071    0.62884    0.77862   1.00
O3       -0.12319   0.57162    0.81279   1.00
O3       0.00565    0.65643    0.79410   1.00
Si1      -0.18050   0.52337    0.79613   1.00
Si1      0.05503    0.73222    0.80352   1.00
C6       -0.23969   0.55051    0.80135   1.00
C6       -0.14392   0.55038    0.77189   1.00
C6       -0.21589   0.43534    0.80092   1.00
C6       0.09302    0.73844    0.82744   1.00
C6       0.11897    0.77153    0.78505   1.00
C6       0.00762    0.77457    0.80401   1.00
C6       -0.25605   0.55314    0.82433   1.00
H2       -0.21221   0.60360    0.79637   1.00
C6       -0.31047   0.51750    0.79025   1.00
H2       -0.10511   0.60332    0.77473   1.00
C6       -0.10528   0.51606    0.76232   1.00
C6       -0.18923   0.55297    0.75437   1.00
H2       -0.22769   0.43197    0.81710   1.00
C6       -0.28462   0.38549    0.79003   1.00
C6       -0.17076   0.40120    0.79794   1.00
C6       0.04514    0.70116    0.84584   1.00
C6       0.15431    0.72498    0.82919   1.00
H2       0.11606    0.79272    0.83082   1.00
H2       0.14792    0.74502    0.78630   1.00
C6       0.09414    0.76176    0.76249   1.00
C6       0.17138    0.84916    0.78779   1.00
H2       0.01100    0.79282    0.78849   1.00
C6       -0.07026   0.72941    0.80824   1.00
C6       0.03339    0.83882    0.81795   1.00
H2       -0.20974   0.58474    0.83307   1.00
H2       -0.28184   0.50217    0.83104   1.00
H2       -0.28888   0.57531    0.82633   1.00
H2       -0.32609   0.55560    0.78805   1.00
H2       -0.30960   0.49698    0.77543   1.00
H2       -0.35089   0.47619    0.79905   1.00
H2       -0.07327   0.54648    0.74967   1.00
H2       -0.07135   0.51172    0.77314   1.00
H2       -0.14091   0.46538    0.75646   1.00
H2       -0.21110   0.58473    0.75844   1.00
H2       -0.15925   0.57544    0.74061   1.00
H2       -0.23039   0.50190    0.75051   1.00
H2       -0.28055   0.39383    0.77365   1.00
H2       -0.30016   0.33198    0.79275   1.00
H2       -0.32636   0.39140    0.79575   1.00
H2       -0.17244   0.38409    0.78236   1.00
H2       -0.11755   0.43448    0.80170   1.00
H2       -0.18928   0.35629    0.80768   1.00
H2       0.03062    0.64751    0.84642   1.00
H2       0.07099    0.72415    0.86013   1.00
H2       -0.00121   0.70441    0.84548   1.00
H2       0.17814    0.74010    0.84415   1.00
H2       0.13854    0.67139    0.82725   1.00
H2       0.19432    0.75448    0.81818   1.00
H2       0.13721    0.77767    0.75213   1.00
H2       0.05801    0.70825    0.75915   1.00
H2       0.06970    0.79155    0.75892   1.00
H2       0.19308    0.86054    0.80302   1.00
H2       0.21395    0.86529    0.77720   1.00
H2       0.14797    0.88036    0.78482   1.00
H2       -0.08051   0.70579    0.82320   1.00
H2       -0.09648   0.75874    0.80710   1.00
H2       -0.09314   0.68893    0.79705   1.00
H2       0.00623    0.86628    0.81460   1.00
H2       0.02532    0.82468    0.83398   1.00
H2       0.08747    0.87479    0.81567   1.00
C4       0.49902    0.47931    0.83429   1.00
C4       0.47427    0.50823    0.81962   1.00
C3       0.54240    0.51675    0.85066   1.00
C3       0.49533    0.57871    0.81878   1.00
C3       0.48054    0.40933    0.83245   1.00
C3       0.42560    0.46477    0.80493   1.00
C2       0.54964    0.41799    0.86272   1.00
C2       0.42300    0.56302    0.78921   1.00
C3       0.56734    0.48709    0.86443   1.00
C3       0.46994    0.60529    0.80412   1.00
C3       0.50521    0.38002    0.84672   1.00
C3       0.40288    0.49302    0.78975   1.00
H1       0.55695    0.56661    0.85311   1.00
H1       0.53004    0.61288    0.82871   1.00
C5       0.43730    0.36901    0.81643   1.00
C5       0.40029    0.39350    0.80532   1.00
H1       0.59894    0.51682    0.87588   1.00
H1       0.48655    0.65658    0.80435   1.00
H1       0.49000    0.32928    0.84554   1.00
H1       0.37141    0.46194    0.77856   1.00
O3       0.42883    0.30535    0.81270   1.00
O3       0.34395    0.34925    0.79399   1.00
Si1      0.47727    0.29651    0.79606   1.00
Si1      0.26807    0.32264    0.80337   1.00
C6       0.45026    0.21019    0.80124   1.00
C6       0.45036    0.30616    0.77181   1.00
C6       0.56524    0.34927    0.80090   1.00
C6       0.26161    0.35420    0.82730   1.00
C6       0.22878    0.34727    0.78490   1.00
C6       0.22587    0.23287    0.80381   1.00
C6       0.44752    0.19107    0.82421   1.00
H2       0.39720    0.18451    0.79622   1.00
C6       0.48347    0.17261    0.79014   1.00
H2       0.39738    0.29192    0.77462   1.00
C6       0.48462    0.37918    0.76228   1.00
C6       0.44800    0.25843    0.75427   1.00
H2       0.56853    0.34075    0.81708   1.00
C6       0.61527    0.33059    0.79002   1.00
C6       0.59926    0.42855    0.79796   1.00
C6       0.29883    0.34358    0.84571   1.00
C6       0.27489    0.42888    0.82908   1.00
H2       0.20731    0.32285    0.83064   1.00
H2       0.25518    0.40271    0.78617   1.00
C6       0.23875    0.33240    0.76234   1.00
C6       0.15109    0.32187    0.78759   1.00
H2       0.20773    0.21808    0.78828   1.00
C6       0.27113    0.20027    0.80805   1.00
C6       0.16155    0.19421    0.81771   1.00
H2       0.41579    0.20563    0.83294   1.00
H2       0.49845    0.21629    0.83095   1.00
H2       0.42544    0.13607    0.82618   1.00
H2       0.44546    0.11888    0.78789   1.00
H2       0.50406    0.19412    0.77533   1.00
H2       0.52477    0.17353    0.79895   1.00
H2       0.45424    0.38078    0.74962   1.00
H2       0.48880    0.41734    0.77311   1.00
H2       0.53536    0.39437    0.75645   1.00
H2       0.41630    0.20476    0.75831   1.00
H2       0.42558    0.26597    0.74051   1.00
H2       0.49913    0.26846    0.75043   1.00
H2       0.60704    0.32642    0.77364   1.00
H2       0.66873    0.36863    0.79278   1.00
H2       0.60942    0.28295    0.79573   1.00
H2       0.61646    0.44409    0.78239   1.00
H2       0.56587    0.44834    0.80172   1.00
H2       0.64410    0.45495    0.80774   1.00
H2       0.35245    0.38279    0.84633   1.00
H2       0.27572    0.34630    0.85999   1.00
H2       0.29569    0.29404    0.84533   1.00
H2       0.25964    0.43745    0.84404   1.00
H2       0.32847    0.46679    0.82718   1.00
H2       0.24541    0.43938    0.81806   1.00
H2       0.22282    0.35955    0.75197   1.00
H2       0.29229    0.34989    0.75902   1.00
H2       0.20907    0.27818    0.75873   1.00
H2       0.13958    0.33206    0.80283   1.00
H2       0.13496    0.34832    0.77701   1.00
H2       0.12001    0.26728    0.78459   1.00
H2       0.29465    0.21358    0.82302   1.00
H2       0.24190    0.14473    0.80687   1.00
H2       0.31169    0.21802    0.79688   1.00
H2       0.13420    0.13961    0.81433   1.00
H2       0.17557    0.20019    0.83375   1.00
H2       0.12550    0.21222    0.81542   1.00
C4       0.35771    0.19542    0.33401   1.00
C4       0.30249    0.16586    0.34815   1.00
C3       0.38076    0.25965    0.32457   1.00
C3       0.26090    0.19455    0.35285   1.00
C3       0.39150    0.15870    0.32865   1.00
C3       0.28758    0.10425    0.35831   1.00
C2       0.46753    0.25017    0.30479   1.00
C2       0.19076    0.10214    0.37660   1.00
C3       0.43389    0.28614    0.31028   1.00
C3       0.20697    0.16394    0.36682   1.00
C3       0.44583    0.18688    0.31449   1.00
C3       0.23120    0.07270    0.37167   1.00
H1       0.35978    0.28918    0.32785   1.00
H1       0.26828    0.23829    0.34618   1.00
C5       0.37098    0.09420    0.33754   1.00
C5       0.32853    0.07409    0.35496   1.00
H1       0.44804    0.33262    0.30383   1.00
H1       0.17899    0.18730    0.36976   1.00
H1       0.47083    0.16082    0.31122   1.00
H1       0.21853    0.02639    0.37783   1.00
O3       0.39565    0.05406    0.32992   1.00
O3       0.32374    0.02279    0.36743   1.00
Si1      0.35222    -0.00336   0.31271   1.00
Si1      0.36755    0.04353    0.38847   1.00
C6       0.41468    -0.02587   0.30715   1.00
C6       0.28103    -0.07072   0.32486   1.00
C6       0.33302    0.03029    0.29117   1.00
C6       0.41693    0.13095    0.39472   1.00
C6       0.30476    0.00133    0.40708   1.00
C6       0.41944    0.00600    0.38779   1.00
C6       0.48881    0.03504    0.30363   1.00
H2       0.41710    -0.04969   0.32129   1.00
C6       0.40290    -0.07885   0.29002   1.00
H2       0.29890    -0.06556   0.34048   1.00
C6       0.21342    -0.06796   0.32593   1.00
C6       0.25853    -0.14570   0.31856   1.00
H2       0.38230    0.07515    0.28774   1.00
C6       0.31084    -0.01430   0.27145   1.00
C6       0.28027    0.05590    0.29302   1.00
C6       0.47204    0.17955    0.37918   1.00
C6       0.38067    0.16998    0.40265   1.00
H2       0.44565    0.12991    0.40788   1.00
H2       0.27697    0.02917    0.40730   1.00
C6       0.24993    -0.07446   0.40236   1.00
C6       0.32947    0.00248    0.42930   1.00
H2       0.38528    -0.04676   0.39235   1.00
C6       0.44689    0.00105    0.36655   1.00
C6       0.48181    0.03417    0.40259   1.00
H2       0.50646    0.07012    0.31650   1.00
H2       0.49149    0.06400    0.29006   1.00
H2       0.52515    0.01698    0.30183   1.00
H2       0.42760    -0.10812   0.29412   1.00
H2       0.34929    -0.11502   0.28737   1.00
H2       0.42497    -0.05423   0.27554   1.00
H2       0.17884    -0.10373   0.33729   1.00
H2       0.22248    -0.01780   0.33034   1.00
H2       0.18675    -0.08171   0.31139   1.00
H2       0.30028    -0.15632   0.32018   1.00
H2       0.21731    -0.18255   0.32826   1.00
H2       0.24017    -0.15580   0.30293   1.00
H2       0.26811    -0.06534   0.27444   1.00
H2       0.29543    0.00836    0.25937   1.00
H2       0.35279    -0.01865   0.26512   1.00
H2       0.22796    0.01489    0.29057   1.00
H2       0.28139    0.07844    0.30760   1.00
H2       0.29099    0.09497    0.28157   1.00
H2       0.45004    0.19626    0.36737   1.00
H2       0.51111    0.22545    0.38680   1.00
H2       0.49805    0.15572    0.37193   1.00
H2       0.41810    0.22017    0.40853   1.00
H2       0.35240    0.17846    0.39077   1.00
H2       0.34576    0.14325    0.41513   1.00
H2       0.20718    -0.09235   0.41296   1.00
H2       0.22887    -0.07967   0.38712   1.00
H2       0.27075    -0.10858   0.40360   1.00
H2       0.36663    0.05403    0.43415   1.00
H2       0.28651    -0.01639   0.43986   1.00
H2       0.35222    -0.02991   0.43092   1.00
H2       0.48007    0.05112    0.35992   1.00
H2       0.47514    -0.02635   0.36727   1.00
H2       0.40452    -0.02704   0.35622   1.00
H2       0.50334    0.00039    0.40295   1.00
H2       0.52234    0.08465    0.39793   1.00
H2       0.46728    0.03773    0.41811   1.00
C4       0.83338    0.64021    0.33466   1.00
C4       0.85999    0.69535    0.34885   1.00
C3       0.84122    0.58209    0.33673   1.00
C3       0.90230    0.70084    0.36548   1.00
C3       0.79772    0.64329    0.31720   1.00
C3       0.84364    0.74820    0.34647   1.00
C2       0.78098    0.53244    0.30478   1.00
C2       0.91306    0.80927    0.37661   1.00
C3       0.81610    0.52986    0.32215   1.00
C3       0.92760    0.75588    0.37910   1.00
C3       0.77166    0.58946    0.30286   1.00
C3       0.87203    0.80469    0.35985   1.00
H1       0.86520    0.57589    0.34892   1.00
H1       0.91633    0.66524    0.36812   1.00
C5       0.78808    0.69997    0.31422   1.00
C5       0.79959    0.74482    0.33068   1.00
H1       0.82374    0.48930    0.32439   1.00
H1       0.95747    0.75686    0.39095   1.00
H1       0.74456    0.59146    0.29071   1.00
H1       0.86339    0.84421    0.35718   1.00
O3       0.76400    0.70832    0.29588   1.00
O3       0.77242    0.78756    0.33047   1.00
Si1      0.81766    0.75550    0.27827   1.00
Si1      0.70302    0.76586    0.34338   1.00
C6       0.75736    0.73516    0.25868   1.00
C6       0.85320    0.84127    0.28587   1.00
C6       0.87755    0.73016    0.27199   1.00
C6       0.66749    0.68982    0.35776   1.00
C6       0.72728    0.83558    0.35968   1.00
C6       0.64213    0.76338    0.32624   1.00
C6       0.70444    0.65744    0.25588   1.00
H2       0.72778    0.75795    0.26419   1.00
C6       0.78038    0.76380    0.23664   1.00
H2       0.81364    0.83895    0.29584   1.00
C6       0.92005    0.87386    0.29882   1.00
C6       0.86516    0.89602    0.26943   1.00
H2       0.84514    0.67504    0.27019   1.00
C6       0.91704    0.75704    0.25147   1.00
C6       0.93442    0.74136    0.28772   1.00
C6       0.64809    0.62180    0.34645   1.00
C6       0.70244    0.68813    0.37809   1.00
H2       0.61906    0.68447    0.36271   1.00
H2       0.76215    0.83192    0.37034   1.00
C6       0.76907    0.90793    0.34981   1.00
C6       0.67008    0.83654    0.37271   1.00
H2       0.65564    0.81669    0.32469   1.00
C6       0.64465    0.73947    0.30424   1.00
C6       0.56531    0.72379    0.33272   1.00
H2       0.67707    0.63453    0.26995   1.00
H2       0.72943    0.62921    0.25099   1.00
H2       0.66592    0.64966    0.24456   1.00
H2       0.74186    0.77264    0.22953   1.00
H2       0.82840    0.81175    0.23633   1.00
H2       0.78615    0.72810    0.22685   1.00
H2       0.92846    0.92089    0.30606   1.00
H2       0.91775    0.84035    0.31100   1.00
H2       0.96455    0.88670    0.28941   1.00
H2       0.81816    0.88298    0.26133   1.00
H2       0.88239    0.94601    0.27630   1.00
H2       0.90393    0.90171    0.25850   1.00
H2       0.94189    0.81254    0.25055   1.00
H2       0.95627    0.74275    0.24953   1.00
H2       0.88321    0.73493    0.23855   1.00
H2       0.97955    0.79185    0.28633   1.00
H2       0.91776    0.73571    0.30335   1.00
H2       0.95091    0.70406    0.28516   1.00
H2       0.69196    0.61472    0.34460   1.00
H2       0.60988    0.57806    0.35507   1.00
H2       0.62644    0.61938    0.33152   1.00
H2       0.66958    0.64139    0.38654   1.00
H2       0.75051    0.68935    0.37556   1.00
H2       0.71193    0.73031    0.38810   1.00
H2       0.79153    0.94723    0.36154   1.00
H2       0.81126    0.91213    0.34066   1.00
H2       0.73737    0.91997    0.34015   1.00
H2       0.63936    0.78844    0.38071   1.00
H2       0.69254    0.87654    0.38426   1.00
H2       0.63633    0.84676    0.36338   1.00
H2       0.63445    0.68705    0.30382   1.00
H2       0.60804    0.74323    0.29432   1.00
H2       0.69486    0.77186    0.29779   1.00
H2       0.53428    0.73471    0.32235   1.00
H2       0.54496    0.66870    0.33263   1.00
H2       0.55791    0.73854    0.34784   1.00
C4       0.80661    0.16634    0.33464   1.00
C4       0.83520    0.13977    0.34882   1.00
C3       0.73938    0.15557    0.33619   1.00
C3       0.79749    0.09472    0.36486   1.00
C3       0.84666    0.20507    0.31774   1.00
C3       0.90541    0.15904    0.34706   1.00
C2       0.75136    0.21894    0.30479   1.00
C2       0.89633    0.08702    0.37660   1.00
C3       0.71234    0.18079    0.32162   1.00
C3       0.82734    0.06956    0.37849   1.00
C3       0.81889    0.23116    0.30342   1.00
C3       0.93373    0.13081    0.36042   1.00
H1       0.70817    0.12928    0.34797   1.00
H1       0.74714    0.07853    0.36705   1.00
C5       0.91429    0.21774    0.31531   1.00
C5       0.94686    0.20584    0.33190   1.00
H1       0.66322    0.17096    0.32345   1.00
H1       0.79775    0.03762    0.38990   1.00
H1       0.84886    0.26044    0.29169   1.00
H1       0.98283    0.14168    0.35815   1.00
O3       0.94854    0.24501    0.29740   1.00
O3       1.01705    0.23543    0.33240   1.00
Si1      0.94639    0.19454    0.27936   1.00
Si1      1.06112    0.30365    0.34615   1.00
C6       0.98687    0.25767    0.26052   1.00
C6       0.99832    0.16102    0.28704   1.00
C6       0.86280    0.13315    0.27203   1.00
C6       1.01647    0.33478    0.36050   1.00
C6       1.10664    0.27984    0.36258   1.00
C6       1.12011    0.36785    0.32990   1.00
C6       0.95955    0.30866    0.25794   1.00
H2       1.03836    0.28814    0.26662   1.00
C6       0.99625    0.23823    0.23837   1.00
H2       1.03339    0.20001    0.29757   1.00
C6       0.96474    0.09258    0.29923   1.00
C6       1.04449    0.15328    0.27083   1.00
H2       0.83840    0.16405    0.27031   1.00
C6       0.85413    0.09663    0.25115   1.00
C6       0.81680    0.07360    0.28699   1.00
C6       0.96735    0.35307    0.34900   1.00
C6       0.97819    0.29646    0.38029   1.00
H2       1.05772    0.38333    0.36612   1.00
H2       1.06757    0.24275    0.37270   1.00
C6       1.14086    0.24159    0.35262   1.00
C6       1.16192    0.33658    0.37645   1.00
H2       1.16151    0.35656    0.32854   1.00
C6       1.09587    0.36704    0.30772   1.00
C6       1.15395    0.44369    0.33722   1.00
H2       0.96121    0.33380    0.27224   1.00
H2       0.90691    0.28256    0.25249   1.00
H2       0.99059    0.34906    0.24713   1.00
H2       1.04375    0.27881    0.23188   1.00
H2       0.99835    0.19136    0.23770   1.00
H2       0.95535    0.23205    0.22825   1.00
H2       1.00368    0.08512    0.30668   1.00
H2       0.93133    0.09193    0.31120   1.00
H2       0.93552    0.04894    0.28928   1.00
H2       1.07805    0.20169    0.26333   1.00
H2       1.07787    0.13699    0.27780   1.00
H2       1.01375    0.11537    0.25938   1.00
H2       0.88662    0.07379    0.25025   1.00
H2       0.80146    0.05623    0.24853   1.00
H2       0.86614    0.13183    0.23857   1.00
H2       0.82443    0.02992    0.28530   1.00
H2       0.82544    0.08837    0.30281   1.00
H2       0.76293    0.05549    0.28393   1.00
H2       0.91751    0.30825    0.34646   1.00
H2       0.95899    0.38907    0.35786   1.00
H2       0.98782    0.37696    0.33438   1.00
H2       0.96156    0.32689    0.38888   1.00
H2       0.93280    0.24780    0.37707   1.00
H2       1.01077    0.28733    0.39045   1.00
H2       1.15763    0.21888    0.36430   1.00
H2       1.10504    0.19990    0.34289   1.00
H2       1.18526    0.27568    0.34352   1.00
H2       1.14186    0.36482    0.38454   1.00
H2       1.17943    0.31392    0.38794   1.00
H2       1.20642    0.37264    0.36769   1.00
H2       1.05239    0.37524    0.30707   1.00
H2       1.13665    0.40581    0.29836   1.00
H2       1.08068    0.31804    0.30076   1.00
H2       1.19664    0.47713    0.32738   1.00
H2       1.11759    0.46207    0.33703   1.00
H2       1.17441    0.44994    0.35253   1.00
C4       0.80848    0.64669    0.83251   1.00
C4       0.83662    0.70031    0.84720   1.00
C3       0.75422    0.63488    0.81926   1.00
C3       0.80933    0.74347    0.85137   1.00
C3       0.83498    0.60138    0.83107   1.00
C3       0.89544    0.71208    0.85842   1.00
C2       0.75214    0.53507    0.80391   1.00
C2       0.89555    0.80664    0.87748   1.00
C3       0.72654    0.58041    0.80543   1.00
C3       0.83833    0.79559    0.86596   1.00
C3       0.80720    0.54749    0.81675   1.00
C3       0.92212    0.76295    0.87366   1.00
H1       0.73338    0.66566    0.81922   1.00
H1       0.76732    0.73805    0.84403   1.00
C5       0.88924    0.61036    0.84387   1.00
C5       0.92702    0.67271    0.85454   1.00
H1       0.68701    0.57409    0.79633   1.00
H1       0.81678    0.82561    0.86820   1.00
H1       0.82798    0.51655    0.81550   1.00
H1       0.96153    0.76785    0.88244   1.00
O3       0.90694    0.56038    0.84483   1.00
O3       0.99093    0.69174    0.86218   1.00
Si1      0.87365    0.50154    0.86231   1.00
Si1      1.05808    0.74701    0.84961   1.00
C6       0.90568    0.44981    0.85311   1.00
C6       0.91191    0.53993    0.88558   1.00
C6       0.78362    0.45717    0.86233   1.00
C6       1.04569    0.78222    0.82718   1.00
C6       1.10240    0.81219    0.86742   1.00
C6       1.10736    0.70836    0.84445   1.00
C6       0.89655    0.43407    0.82979   1.00
H2       0.96052    0.48236    0.85538   1.00
C6       0.88646    0.38020    0.86358   1.00
H2       0.96055    0.58270    0.88064   1.00
C6       0.87746    0.57180    0.89877   1.00
C6       0.93047    0.49881    0.90087   1.00
H2       0.77180    0.44516    0.84626   1.00
C6       0.74655    0.38729    0.87383   1.00
C6       0.74464    0.49485    0.86929   1.00
C6       1.00163    0.73223    0.80990   1.00
C6       1.02343    0.83740    0.82870   1.00
H2       1.09727    0.81048    0.82101   1.00
H2       1.07072    0.83565    0.86911   1.00
C6       1.10874    0.78871    0.88926   1.00
C6       1.17512    0.87077    0.86139   1.00
H2       1.13521    0.71443    0.85853   1.00
C6       1.06716    0.63001    0.84046   1.00
C6       1.16260    0.74004    0.82735   1.00
H2       0.91862    0.48084    0.82081   1.00
H2       0.84268    0.40330    0.82574   1.00
H2       0.92224    0.40632    0.82508   1.00
H2       0.92918    0.37066    0.86254   1.00
H2       0.87396    0.37894    0.87955   1.00
H2       0.84309    0.33699    0.85627   1.00
H2       0.91284    0.60595    0.91028   1.00
H2       0.86246    0.60238    0.88974   1.00
H2       0.83260    0.53240    0.90665   1.00
H2       0.96357    0.48240    0.89388   1.00
H2       0.95850    0.53008    0.91394   1.00
H2       0.88466    0.45414    0.90660   1.00
H2       0.76455    0.39276    0.88946   1.00
H2       0.69122    0.36587    0.87424   1.00
H2       0.75418    0.34904    0.86624   1.00
H2       0.73643    0.49167    0.88566   1.00
H2       0.77062    0.54844    0.86532   1.00
H2       0.69437    0.47150    0.86212   1.00
H2       0.94732    0.71183    0.81247   1.00
H2       1.01384    0.75867    0.79530   1.00
H2       1.01070    0.68958    0.80829   1.00
H2       1.02731    0.86092    0.81390   1.00
H2       0.97085    0.81593    0.83368   1.00
H2       1.05592    0.87880    0.83897   1.00
H2       1.12638    0.83119    0.89994   1.00
H2       1.05949    0.74838    0.89484   1.00
H2       1.14469    0.76995    0.88979   1.00
H2       1.17522    0.89183    0.84649   1.00
H2       1.19318    0.91281    0.87226   1.00
H2       1.21205    0.85313    0.86127   1.00
H2       1.03488    0.61688    0.82704   1.00
H2       1.10138    0.60945    0.83858   1.00
H2       1.03457    0.60397    0.85334   1.00
H2       1.19633    0.71845    0.82773   1.00
H2       1.13927    0.73012    0.81231   1.00
H2       1.19491    0.79501    0.82915   1.00
C4       0.35588    0.17010    0.83328   1.00
C4       0.30092    0.14333    0.84753   1.00
C3       0.35987    0.21045    0.81629   1.00
C3       0.24158    0.14897    0.84520   1.00
C3       0.40965    0.15515    0.83584   1.00
C3       0.30495    0.10904    0.86519   1.00
C2       0.46703    0.21949    0.80459   1.00
C2       0.19126    0.08647    0.87680   1.00
C3       0.41368    0.23416    0.80227   1.00
C3       0.18853    0.12189    0.85952   1.00
C3       0.46414    0.18062    0.82174   1.00
C3       0.24965    0.07960    0.87899   1.00
H1       0.32392    0.22400    0.81363   1.00
H1       0.23495    0.17253    0.83297   1.00
C5       0.40878    0.11510    0.85252   1.00
C5       0.36376    0.10374    0.86892   1.00
H1       0.41360    0.26271    0.79019   1.00
H1       0.14711    0.12802    0.85713   1.00
H1       0.50331    0.17107    0.82409   1.00
H1       0.25142    0.05147    0.89086   1.00
O3       0.45415    0.09135    0.85310   1.00
O3       0.37465    0.08316    0.88761   1.00
Si1      0.43168    0.01570    0.84420   1.00
Si1      0.41060    0.13988    0.90553   1.00
C6       0.51250    0.02216    0.84591   1.00
C6       0.37368    -0.04457   0.86158   1.00
C6       0.40286    0.00402    0.81884   1.00
C6       0.43125    0.22472    0.90040   1.00
C6       0.35071    0.10686    0.92529   1.00
C6       0.48390    0.13772    0.91334   1.00
C6       0.57396    0.08955    0.83738   1.00
H2       0.52057    0.02426    0.86229   1.00
C6       0.52412    -0.03671   0.83805   1.00
H2       0.38772    -0.01543   0.87568   1.00
C6       0.29584    -0.07113   0.85859   1.00
C6       0.37869    -0.10974   0.86619   1.00
H2       0.44233    0.05036    0.81153   1.00
C6       0.40019    -0.05702   0.80685   1.00
C6       0.33284    -0.00049   0.81385   1.00
C6       0.47915    0.26203    0.88200   1.00
C6       0.37310    0.24304    0.89966   1.00
H2       0.46060    0.25179    0.91381   1.00
H2       0.30853    0.11281    0.91981   1.00
C6       0.31902    0.02887    0.92974   1.00
C6       0.37224    0.14404    0.94625   1.00
H2       0.46426    0.09423    0.92365   1.00
C6       0.52259    0.12204    0.89655   1.00
C6       0.53968    0.20013    0.92552   1.00
H2       0.57701    0.13461    0.84446   1.00
H2       0.56954    0.09362    0.82099   1.00
H2       0.62250    0.09178    0.84041   1.00
H2       0.56219    -0.03995   0.84746   1.00
H2       0.47804    -0.08639   0.83840   1.00
H2       0.54355    -0.02800   0.82253   1.00
H2       0.26736    -0.09606   0.87237   1.00
H2       0.28565    -0.02992   0.85538   1.00
H2       0.27485    -0.10837   0.84631   1.00
H2       0.42958    -0.09643   0.87142   1.00
H2       0.34357    -0.14019   0.87830   1.00
H2       0.36601    -0.14228   0.85280   1.00
H2       0.37061    -0.10496   0.81506   1.00
H2       0.37731    -0.06316   0.79182   1.00
H2       0.45104    -0.04877   0.80405   1.00
H2       0.29004    -0.05246   0.81517   1.00
H2       0.32152    0.03128    0.82351   1.00
H2       0.33307    0.01603    0.79824   1.00
H2       0.45105    0.24949    0.86776   1.00
H2       0.50371    0.31733    0.88387   1.00
H2       0.51969    0.24976    0.88050   1.00
H2       0.39462    0.29836    0.89922   1.00
H2       0.34107    0.22241    0.88628   1.00
H2       0.34048    0.22504    0.91304   1.00
H2       0.27465    0.01093    0.93969   1.00
H2       0.30130    -0.00127   0.91583   1.00
H2       0.35534    0.01752    0.93712   1.00
H2       0.39321    0.19892    0.94468   1.00
H2       0.32801    0.12535    0.95631   1.00
H2       0.40998    0.13510    0.95381   1.00
H2       0.54272    0.16099    0.88475   1.00
H2       0.56487    0.11766    0.90284   1.00
H2       0.48821    0.07360    0.88939   1.00
H2       0.57691    0.18830    0.93210   1.00
H2       0.56743    0.24482    0.91580   1.00
H2       0.51769    0.21397    0.93808   1.00
C4       0.82957    0.18598    0.83346   1.00
C4       0.85628    0.15763    0.84768   1.00
C3       0.78198    0.14732    0.81805   1.00
C3       0.84290    0.08936    0.84676   1.00
C3       0.85215    0.25714    0.83436   1.00
C3       0.89866    0.19927    0.86382   1.00
C2       0.78058    0.24777    0.80465   1.00
C2       0.91346    0.10454    0.87674   1.00
C3       0.75842    0.17738    0.80397   1.00
C3       0.87017    0.06332    0.86099   1.00
C3       0.82680    0.28626    0.82025   1.00
C3       0.92798    0.17292    0.87748   1.00
H1       0.76285    0.09614    0.81666   1.00
H1       0.81331    0.05667    0.83565   1.00
C5       0.89967    0.29870    0.84939   1.00
C5       0.91211    0.26711    0.86615   1.00
H1       0.72440    0.14695    0.79307   1.00
H1       0.85827    0.01339    0.85968   1.00
H1       0.84201    0.33699    0.82143   1.00
H1       0.96167    0.20465    0.88816   1.00
O3       0.92983    0.36862    0.84815   1.00
O3       0.94128    0.30352    0.88370   1.00
Si1      1.00340    0.41269    0.83682   1.00
Si1      0.89212    0.29403    0.90299   1.00
C6       1.00633    0.49206    0.83717   1.00
C6       1.06589    0.41331    0.85291   1.00
C6       1.00368    0.38541    0.81175   1.00
C6       0.80392    0.23513    0.90076   1.00
C6       0.92670    0.26804    0.92254   1.00
C6       0.90531    0.37541    0.90920   1.00
C6       0.93980    0.49118    0.83007   1.00
H2       1.01065    0.50366    0.85336   1.00
C6       1.06654    0.55661    0.82685   1.00
H2       1.04182    0.40530    0.86777   1.00
C6       1.08389    0.35538    0.85046   1.00
C6       1.13621    0.48066    0.85487   1.00
H2       0.95713    0.38143    0.80549   1.00
C6       1.06313    0.43570    0.79753   1.00
C6       0.99880    0.31455    0.80801   1.00
C6       0.76397    0.24497    0.88297   1.00
C6       0.77795    0.15680    0.90189   1.00
H2       0.78350    0.24491    0.91455   1.00
H2       0.91385    0.21651    0.91816   1.00
C6       1.00626    0.30876    0.92458   1.00
C6       0.89741    0.26255    0.94437   1.00
H2       0.95214    0.39850    0.91816   1.00
C6       0.92032    0.42542    0.89114   1.00
C6       0.85047    0.37967    0.92262   1.00
H2       0.89544    0.45465    0.83879   1.00
H2       0.92944    0.47766    0.81404   1.00
H2       0.94398    0.54101    0.83221   1.00
H2       1.07743    0.60251    0.83531   1.00
H2       1.11344    0.55459    0.82618   1.00
H2       1.05428    0.56407    0.81138   1.00
H2       1.11149    0.35297    0.86376   1.00
H2       1.03852    0.30533    0.84907   1.00
H2       1.11628    0.36419    0.83724   1.00
H2       1.12982    0.52334    0.85957   1.00
H2       1.16828    0.47591    0.86643   1.00
H2       1.16425    0.49349    0.84056   1.00
H2       1.11277    0.45183    0.80442   1.00
H2       1.06183    0.41273    0.78281   1.00
H2       1.05927    0.48053    0.79405   1.00
H2       1.04882    0.31841    0.80816   1.00
H2       0.96760    0.27610    0.81906   1.00
H2       0.97620    0.29456    0.79313   1.00
H2       0.76904    0.22270    0.86890   1.00
H2       0.70952    0.21985    0.88648   1.00
H2       0.78086    0.29848    0.88020   1.00
H2       0.72235    0.12776    0.90317   1.00
H2       0.79135    0.13822    0.88844   1.00
H2       0.79770    0.14348    0.91514   1.00
H2       1.02345    0.28197    0.93465   1.00
H2       1.03103    0.31388    0.90993   1.00
H2       1.02475    0.35975    0.93074   1.00
H2       0.84181    0.23298    0.94452   1.00
H2       0.91544    0.23665    0.95452   1.00
H2       0.91361    0.31284    0.95079   1.00
H2       0.87778    0.40662    0.88053   1.00
H2       0.93182    0.47584    0.89638   1.00
H2       0.96468    0.43219    0.88284   1.00
H2       0.86930    0.43182    0.92796   1.00
H2       0.80350    0.36418    0.91413   1.00
H2       0.83782    0.34761    0.93607   1.00
C4       -0.02208   0.47210    0.33342   1.00
C4       0.03161    0.50109    0.31876   1.00
C3       -0.06378   0.40086    0.33666   1.00
C3       0.04490    0.46177    0.30465   1.00
C3       -0.03600   0.51629    0.34538   1.00
C3       0.07492    0.57336    0.31805   1.00
C2       -0.13184   0.41737    0.36265   1.00
C2       0.14023    0.56364    0.28928   1.00
C3       -0.11740   0.37419    0.35078   1.00
C3       0.09810    0.49210    0.29044   1.00
C3       -0.08950   0.48842    0.35982   1.00
C3       0.12638    0.60307    0.30304   1.00
H1       -0.05626   0.36628    0.32890   1.00
H1       0.01607    0.40997    0.30419   1.00
C5       0.00380    0.58802    0.34290   1.00
C5       0.06635    0.61569    0.33217   1.00
H1       -0.14616   0.32222    0.35236   1.00
H1       0.10570    0.46109    0.28072   1.00
H1       -0.09767   0.52079    0.36868   1.00
H1       0.15409    0.65502    0.30190   1.00
O3       -0.01670   0.62973    0.35191   1.00
O3       0.11536    0.68359    0.33439   1.00
Si1      -0.06330   0.65334    0.33918   1.00
Si1      0.17996    0.70358    0.34941   1.00
C6       -0.08130   0.69255    0.35953   1.00
C6       -0.00996   0.71398    0.32109   1.00
C6       -0.13865   0.58417    0.32929   1.00
C6       0.18564    0.63684    0.36146   1.00
C6       0.25064    0.74874    0.33341   1.00
C6       0.18082    0.76093    0.36762   1.00
C6       -0.10523   0.65049    0.37973   1.00
H2       -0.03111   0.73613    0.36288   1.00
C6       -0.12973   0.72290    0.35664   1.00
H2       0.04018    0.73438    0.32809   1.00
C6       -0.00373   0.68818    0.29962   1.00
C6       -0.01881   0.77719    0.31697   1.00
H2       -0.15882   0.55024    0.34239   1.00
C6       -0.19641   0.59873    0.32243   1.00
C6       -0.13384   0.54055    0.31149   1.00
C6       0.12455    0.58599    0.37501   1.00
C6       0.20786    0.59254    0.34886   1.00
H2       0.22803    0.66460    0.37194   1.00
H2       0.24858    0.70970    0.32327   1.00
C6       0.24861    0.80318    0.31923   1.00
C6       0.32290    0.78402    0.34344   1.00
H2       0.20519    0.81001    0.35981   1.00
C6       0.10995    0.74957    0.37443   1.00
C6       0.22284    0.77197    0.38753   1.00
H2       -0.06856   0.63582    0.38492   1.00
H2       -0.15453   0.60402    0.37780   1.00
H2       -0.11022   0.68033    0.39195   1.00
H2       -0.11301   0.76773    0.36631   1.00
H2       -0.13073   0.73856    0.34112   1.00
H2       -0.18227   0.68684    0.36098   1.00
H2       0.04072    0.72764    0.29154   1.00
H2       0.00316    0.64401    0.30051   1.00
H2       -0.04860   0.67505    0.29036   1.00
H2       -0.01385   0.80536    0.33089   1.00
H2       0.02056    0.81335    0.30666   1.00
H2       -0.06827   0.76182    0.31006   1.00
H2       -0.17708   0.64098    0.31165   1.00
H2       -0.23899   0.55428    0.31522   1.00
H2       -0.21866   0.61048    0.33531   1.00
H2       -0.13355   0.56202    0.29665   1.00
H2       -0.08889   0.53532    0.31223   1.00
H2       -0.17795   0.48894    0.31184   1.00
H2       0.08400    0.54579    0.36603   1.00
H2       0.14128    0.56106    0.38594   1.00
H2       0.10282    0.61143    0.38369   1.00
H2       0.21826    0.56032    0.35889   1.00
H2       0.16858    0.55869    0.33828   1.00
H2       0.25466    0.62374    0.34034   1.00
H2       0.28826    0.81990    0.30760   1.00
H2       0.19989    0.78217    0.31126   1.00
H2       0.25673    0.84817    0.32762   1.00
H2       0.32973    0.74900    0.35321   1.00
H2       0.36258    0.80165    0.33179   1.00
H2       0.33195    0.82836    0.35239   1.00
H2       0.07918    0.70041    0.38185   1.00
H2       0.11506    0.78950    0.38479   1.00
H2       0.08182    0.75118    0.36131   1.00
H2       0.22797    0.81577    0.39604   1.00
H2       0.19817    0.72745    0.39747   1.00
H2       0.27437    0.78231    0.38432   1.00
C4       0.49434    1.02262    0.33323   1.00
C4       0.46975    0.96886    0.31860   1.00
C3       0.47095    1.07014    0.33457   1.00
C3       0.42402    0.96103    0.30272   1.00
C3       0.54597    1.03044    0.34719   1.00
C3       0.49157    0.91973    0.31978   1.00
C2       0.54908    1.13198    0.36260   1.00
C2       0.42356    0.85963    0.28933   1.00
C3       0.49781    1.12355    0.34877   1.00
C3       0.40104    0.90757    0.28860   1.00
C3       0.57149    1.08389    0.36164   1.00
C3       0.47010    0.86797    0.30489   1.00
H1       0.43356    1.06719    0.32532   1.00
H1       0.40639    0.99418    0.30087   1.00
C5       0.57157    0.98464    0.34667   1.00
C5       0.53513    0.92278    0.33568   1.00
H1       0.47926    1.15667    0.34893   1.00
H1       0.36752    0.90411    0.27754   1.00
H1       0.60715    1.08772    0.37192   1.00
H1       0.48959    0.83584    0.30518   1.00
O3       0.62881    0.99889    0.35774   1.00
O3       0.54592    0.86886    0.33948   1.00
Si1      0.70393    1.03954    0.34711   1.00
Si1      0.49157    0.80619    0.35371   1.00
C6       0.75242    1.05182    0.36929   1.00
C6       0.71024    0.98230    0.33034   1.00
C6       0.72221    1.11818    0.33625   1.00
C6       0.41963    0.80895    0.36289   1.00
C6       0.46459    0.73460    0.33801   1.00
C6       0.53779    0.79866    0.37406   1.00
C6       0.73177    1.07937    0.38823   1.00
H2       0.73903    0.99972    0.37320   1.00
C6       0.83244    1.09345    0.36873   1.00
H2       0.67415    0.93303    0.33695   1.00
C6       0.68692    0.97940    0.30784   1.00
C6       0.77958    0.98299    0.32895   1.00
H2       0.70752    1.14118    0.34838   1.00
C6       0.79871    1.17039    0.33134   1.00
C6       0.68263    1.11877    0.31674   1.00
C6       0.43208    0.87223    0.37573   1.00
C6       0.35938    0.79337    0.34811   1.00
H2       0.39734    0.76606    0.37344   1.00
H2       0.43390    0.74112    0.32642   1.00
C6       0.52198    0.72989    0.32613   1.00
C6       0.41805    0.66290    0.34771   1.00
H2       0.56037    0.76996    0.36770   1.00
C6       0.59943    0.86632    0.38199   1.00
C6       0.49723    0.75820    0.39331   1.00
H2       0.67789    1.04687    0.39197   1.00
H2       0.74108    1.13099    0.38559   1.00
H2       0.76062    1.08055    0.40167   1.00
H2       0.85325    1.07253    0.37974   1.00
H2       0.85323    1.09241    0.35396   1.00
H2       0.85272    1.14691    0.37281   1.00
H2       0.67957    0.93308    0.30037   1.00
H2       0.63840    0.97825    0.30681   1.00
H2       0.72498    1.02285    0.29915   1.00
H2       0.79585    0.97508    0.34379   1.00
H2       0.77523    0.94178    0.31925   1.00
H2       0.81959    1.03102    0.32261   1.00
H2       0.82122    1.14719    0.32187   1.00
H2       0.80460    1.21546    0.32338   1.00
H2       0.82868    1.18987    0.34510   1.00
H2       0.70722    1.11582    0.30283   1.00
H2       0.63031    1.07737    0.31623   1.00
H2       0.68096    1.16618    0.31604   1.00
H2       0.44038    0.91487    0.36613   1.00
H2       0.38771    0.85964    0.38521   1.00
H2       0.47562    0.88956    0.38585   1.00
H2       0.31519    0.78757    0.35655   1.00
H2       0.37278    0.83407    0.33715   1.00
H2       0.34202    0.74583    0.33982   1.00
H2       0.49975    0.69074    0.31434   1.00
H2       0.55635    0.77789    0.31849   1.00
H2       0.55241    0.71699    0.33606   1.00
H2       0.37511    0.66078    0.35587   1.00
H2       0.39663    0.62362    0.33594   1.00
H2       0.44669    0.64920    0.35816   1.00
H2       0.58364    0.90101    0.38811   1.00
H2       0.62766    0.85685    0.39375   1.00
H2       0.63487    0.89233    0.36967   1.00
H2       0.52964    0.74823    0.40339   1.00
H2       0.47850    0.78665    0.40197   1.00
H2       0.45377    0.70877    0.38935   1.00
C4       0.52827    0.50566    0.33324   1.00
C4       0.49911    0.53026    0.31861   1.00
C3       0.59922    0.52929    0.33464   1.00
C3       0.53709    0.57626    0.30279   1.00
C3       0.48442    0.45378    0.34713   1.00
C3       0.42809    0.50817    0.31972   1.00
C2       0.58290    0.45091    0.36260   1.00
C2       0.43609    0.57645    0.28933   1.00
C3       0.62578    0.50243    0.34884   1.00
C3       0.50662    0.59923    0.28866   1.00
C3       0.51236    0.42826    0.36158   1.00
C3       0.39782    0.52965    0.30482   1.00
H1       0.63369    0.56687    0.32544   1.00
H1       0.58792    0.59409    0.30098   1.00
C5       0.41299    0.42794    0.34654   1.00
C5       0.38749    0.46433    0.33556   1.00
H1       0.67747    0.52116    0.34905   1.00
H1       0.53672    0.63294    0.27765   1.00
H1       0.48049    0.39241    0.37181   1.00
H1       0.34617    0.50997    0.30506   1.00
O3       0.37002    0.37050    0.35754   1.00
O3       0.32265    0.45324    0.33931   1.00
Si1      0.33593    0.29553    0.34682   1.00
Si1      0.31390    0.50725    0.35357   1.00
C6       0.29959    0.24671    0.36894   1.00
C6       0.27248    0.28917    0.33001   1.00
C6       0.39663    0.27768    0.33599   1.00
C6       0.38833    0.57924    0.36286   1.00
C6       0.26927    0.53418    0.33786   1.00
C6       0.25999    0.46064    0.37385   1.00
C6       0.34758    0.26729    0.38793   1.00
H2       0.26070    0.25986    0.37284   1.00
C6       0.26147    0.16670    0.36830   1.00
H2       0.25904    0.32504    0.33664   1.00
C6       0.29311    0.31281    0.30754   1.00
C6       0.20399    0.21970    0.32852   1.00
H2       0.43420    0.29235    0.34816   1.00
C6       0.37268    0.20131    0.33100   1.00
C6       0.43695    0.31760    0.31654   1.00
C6       0.43917    0.56688    0.37572   1.00
C6       0.43302    0.63974    0.34815   1.00
H2       0.36748    0.60126    0.37341   1.00
H2       0.30656    0.56510    0.32632   1.00
C6       0.20742    0.47679    0.32589   1.00
C6       0.24374    0.58039    0.34758   1.00
H2       0.20878    0.43798    0.36743   1.00
C6       0.26620    0.39907    0.38173   1.00
C6       0.25968    0.50088    0.39314   1.00
H2       0.36873    0.32110    0.39172   1.00
H2       0.39006    0.25822    0.38532   1.00
H2       0.31982    0.23821    0.40133   1.00
H2       0.21961    0.14562    0.37926   1.00
H2       0.23986    0.14605    0.35350   1.00
H2       0.29476    0.14656    0.37239   1.00
H2       0.25411    0.32007    0.30004   1.00
H2       0.34038    0.36144    0.30658   1.00
H2       0.29879    0.27496    0.29882   1.00
H2       0.17966    0.20317    0.34333   1.00
H2       0.16716    0.22401    0.31880   1.00
H2       0.21228    0.17989    0.32215   1.00
H2       0.32708    0.17877    0.32149   1.00
H2       0.41206    0.19570    0.32307   1.00
H2       0.36214    0.17119    0.34474   1.00
H2       0.40963    0.29312    0.30260   1.00
H2       0.44768    0.36986    0.31607   1.00
H2       0.48614    0.31948    0.31587   1.00
H2       0.47375    0.55887    0.36615   1.00
H2       0.47073    0.61118    0.38526   1.00
H2       0.41299    0.52320    0.38579   1.00
H2       0.47120    0.68389    0.35666   1.00
H2       0.46057    0.62663    0.33721   1.00
H2       0.40280    0.65704    0.33986   1.00
H2       0.19052    0.49905    0.31411   1.00
H2       0.22133    0.44266    0.31824   1.00
H2       0.16401    0.44612    0.33577   1.00
H2       0.28436    0.62331    0.35580   1.00
H2       0.22588    0.60183    0.33582   1.00
H2       0.20130    0.55149    0.35798   1.00
H2       0.31664    0.41496    0.38790   1.00
H2       0.22840    0.37060    0.39345   1.00
H2       0.25705    0.36382    0.36938   1.00
H2       0.21723    0.46823    0.40316   1.00
H2       0.30678    0.51966    0.40184   1.00
H2       0.25356    0.54427    0.38920   1.00
C4       0.18789    0.35290    0.16767   1.00
C4       0.15881    0.29917    0.15302   1.00
C3       0.15318    0.35456    0.18540   1.00
C3       0.09012    0.24507    0.15369   1.00
C3       0.25504    0.40888    0.16440   1.00
C3       0.20024    0.29883    0.13676   1.00
C2       0.24894    0.46505    0.19604   1.00
C2       0.10337    0.19324    0.12257   1.00
C3       0.18266    0.40925    0.19914   1.00
C3       0.06330    0.19320    0.13900   1.00
C3       0.28437    0.46294    0.17864   1.00
C3       0.17142    0.24771    0.12163   1.00
H1       0.10555    0.31598    0.18889   1.00
H1       0.05742    0.24198    0.16479   1.00
C5       0.29255    0.41036    0.14698   1.00
C5       0.26998    0.34974    0.13554   1.00
H1       0.15493    0.40789    0.21163   1.00
H1       0.01344    0.15504    0.14035   1.00
H1       0.33328    0.50183    0.17638   1.00
H1       0.20051    0.25062    0.10940   1.00
O3       0.35214    0.46914    0.14212   1.00
O3       0.31397    0.34301    0.12247   1.00
Si1      0.35036    0.52399    0.12641   1.00
Si1      0.34970    0.29946    0.12986   1.00
C6       0.43588    0.58912    0.12970   1.00
C6       0.33671    0.48841    0.10190   1.00
C6       0.29313    0.55158    0.13381   1.00
C6       0.32797    0.26036    0.15401   1.00
C6       0.32501    0.23652    0.11106   1.00
C6       0.43859    0.35386    0.12806   1.00
C6       0.46113    0.60669    0.15220   1.00
H2       0.46399    0.56602    0.12324   1.00
C6       0.46440    0.65979    0.11875   1.00
H2       0.35644    0.45343    0.10340   1.00
C6       0.26162    0.44405    0.09423   1.00
C6       0.37649    0.53617    0.08368   1.00
H2       0.30571    0.56368    0.14984   1.00
C6       0.30219    0.61827    0.12372   1.00
C6       0.21418    0.50046    0.13279   1.00
C6       0.33971    0.30667    0.17291   1.00
C6       0.25694    0.19456    0.15719   1.00
H2       0.36409    0.24210    0.15576   1.00
H2       0.27054    0.20324    0.11371   1.00
C6       0.33109    0.26141    0.08860   1.00
C6       0.35774    0.18996    0.11178   1.00
H2       0.44965    0.35222    0.11202   1.00
C6       0.46584    0.43073    0.13270   1.00
C6       0.48583    0.33386    0.14000   1.00
H2       0.45338    0.56155    0.16046   1.00
H2       0.43418    0.62825    0.16032   1.00
H2       0.51572    0.64359    0.15287   1.00
H2       0.51816    0.68032    0.11493   1.00
H2       0.43753    0.65656    0.10477   1.00
H2       0.46192    0.69777    0.12837   1.00
H2       0.25941    0.41368    0.08104   1.00
H2       0.22861    0.40800    0.10567   1.00
H2       0.24031    0.47591    0.08968   1.00
H2       0.43145    0.56262    0.08623   1.00
H2       0.36754    0.50708    0.06965   1.00
H2       0.36059    0.57382    0.08105   1.00
H2       0.30199    0.61482    0.10719   1.00
H2       0.26174    0.62877    0.12812   1.00
H2       0.34931    0.66276    0.12854   1.00
H2       0.19306    0.50029    0.11789   1.00
H2       0.20017    0.44824    0.13615   1.00
H2       0.18769    0.51506    0.14382   1.00
H2       0.29747    0.31607    0.17521   1.00
H2       0.34388    0.28210    0.18669   1.00
H2       0.38648    0.35569    0.17171   1.00
H2       0.25501    0.17125    0.17189   1.00
H2       0.21517    0.20527    0.15696   1.00
H2       0.24677    0.15570    0.14579   1.00
H2       0.30406    0.21787    0.07838   1.00
H2       0.30809    0.29351    0.08665   1.00
H2       0.38404    0.29030    0.08359   1.00
H2       0.35399    0.16848    0.12686   1.00
H2       0.33134    0.14696    0.10133   1.00
H2       0.41137    0.21792    0.10733   1.00
H2       0.45544    0.43900    0.14827   1.00
H2       0.52072    0.46145    0.13009   1.00
H2       0.44156    0.45029    0.12268   1.00
H2       0.53896    0.36535    0.13525   1.00
H2       0.48363    0.34087    0.15633   1.00
H2       0.47194    0.28099    0.13727   1.00
C4       0.64013    0.83260    0.16533   1.00
C4       0.69518    0.85931    0.15111   1.00
C3       0.57780    0.83178    0.16193   1.00
C3       0.69589    0.89340    0.13295   1.00
C3       0.64764    0.80604    0.18418   1.00
C3       0.75300    0.85169    0.15506   1.00
C2       0.53256    0.78079    0.19526   1.00
C2       0.80915    0.91325    0.12335   1.00
C3       0.52563    0.80696    0.17652   1.00
C3       0.75100    0.91908    0.11935   1.00
C3       0.59390    0.78005    0.19854   1.00
C3       0.80925    0.88050    0.14160   1.00
H1       0.56839    0.84897    0.14873   1.00
H1       0.65659    0.90096    0.12913   1.00
C5       0.70867    0.80533    0.18852   1.00
C5       0.75474    0.81597    0.17249   1.00
H1       0.48188    0.80811    0.17329   1.00
H1       0.74844    0.94275    0.10637   1.00
H1       0.59927    0.75943    0.21176   1.00
H1       0.85203    0.87843    0.14529   1.00
O3       0.72032    0.79044    0.20786   1.00
O3       0.80323    0.79631    0.17455   1.00
Si1      0.76336    0.85215    0.22396   1.00
Si1      0.78899    0.72489    0.16422   1.00
C6       0.74917    0.80055    0.24553   1.00
C6       0.84961    0.89328    0.21645   1.00
C6       0.72916    0.90653    0.22729   1.00
C6       0.71319    0.67741    0.15008   1.00
C6       0.85975    0.75054    0.14825   1.00
C6       0.79376    0.67416    0.18369   1.00
C6       0.67362    0.74271    0.24913   1.00
H2       0.77694    0.77416    0.24168   1.00
C6       0.77640    0.83310    0.26696   1.00
H2       0.85213    0.85293    0.20813   1.00
C6       0.87587    0.95479    0.20142   1.00
C6       0.90582    0.91697    0.23324   1.00
H2       0.67494    0.87018    0.22945   1.00
C6       0.75251    0.95356    0.24650   1.00
C6       0.73409    0.95514    0.20954   1.00
C6       0.64366    0.65475    0.16092   1.00
C6       0.70726    0.70251    0.12843   1.00
H2       0.71356    0.63021    0.14705   1.00
H2       0.85167    0.77866    0.13617   1.00
C6       0.93091    0.80179    0.15760   1.00
C6       0.86794    0.69323    0.13768   1.00
H2       0.84837    0.69395    0.18560   1.00
C6       0.76802    0.68107    0.20500   1.00
C6       0.76149    0.59582    0.17972   1.00
H2       0.65291    0.70961    0.23589   1.00
H2       0.64068    0.76395    0.25247   1.00
H2       0.67007    0.71000    0.26182   1.00
H2       0.79043    0.80104    0.27577   1.00
H2       0.82110    0.88371    0.26614   1.00
H2       0.73791    0.83730    0.27582   1.00
H2       0.92456    0.96602    0.19470   1.00
H2       0.84087    0.94420    0.18883   1.00
H2       0.88386    1.00084    0.20915   1.00
H2       0.89779    0.87463    0.24298   1.00
H2       0.95653    0.93686    0.22657   1.00
H2       0.90696    0.95734    0.24259   1.00
H2       0.80804    0.98391    0.24737   1.00
H2       0.73255    0.98873    0.24657   1.00
H2       0.73322    0.92393    0.26034   1.00
H2       0.78182    1.00377    0.20994   1.00
H2       0.73031    0.93360    0.19460   1.00
H2       0.69264    0.96655    0.21074   1.00
H2       0.63076    0.69508    0.16082   1.00
H2       0.60227    0.61087    0.15316   1.00
H2       0.64367    0.63957    0.17658   1.00
H2       0.66203    0.66326    0.12057   1.00
H2       0.70259    0.74801    0.12898   1.00
H2       0.75071    0.71318    0.11883   1.00
H2       0.96973    0.82349    0.14570   1.00
H2       0.93006    0.84451    0.16502   1.00
H2       0.94746    0.77732    0.16869   1.00
H2       0.82099    0.65595    0.13017   1.00
H2       0.90749    0.71509    0.12599   1.00
H2       0.88282    0.66652    0.14851   1.00
H2       0.71392    0.66513    0.20493   1.00
H2       0.77643    0.65110    0.21643   1.00
H2       0.79597    0.73386    0.20992   1.00
H2       0.77677    0.57208    0.19149   1.00
H2       0.70582    0.57004    0.17969   1.00
H2       0.77810    0.58563    0.16528   1.00
C4       0.16634    0.80661    0.16536   1.00
C4       0.13976    0.83520    0.15118   1.00
C3       0.15554    0.73937    0.16382   1.00
C3       0.09470    0.79749    0.13514   1.00
C3       0.20509    0.84667    0.18225   1.00
C3       0.15906    0.90541    0.15293   1.00
C2       0.21894    0.75136    0.19521   1.00
C2       0.08702    0.89633    0.12340   1.00
C3       0.18076    0.71233    0.17838   1.00
C3       0.06954    0.82733    0.12152   1.00
C3       0.23118    0.81890    0.19658   1.00
C3       0.13084    0.93374    0.13958   1.00
H1       0.12923    0.70815    0.15203   1.00
H1       0.07849    0.74713    0.13296   1.00
C5       0.21778    0.91431    0.18468   1.00
C5       0.20589    0.94687    0.16809   1.00
H1       0.17092    0.66320    0.17656   1.00
H1       0.03758    0.79773    0.11010   1.00
H1       0.26049    0.84888    0.20831   1.00
H1       0.14172    0.98285    0.14184   1.00
O3       0.24508    0.94857    0.20259   1.00
O3       0.23550    1.01706    0.16758   1.00
Si1      0.19464    0.94646    0.22063   1.00
Si1      0.30371    1.06110    0.15383   1.00
C6       0.25780    0.98694    0.23946   1.00
C6       0.16114    0.99841    0.21295   1.00
C6       0.13324    0.86288    0.22797   1.00
C6       0.33480    1.01642    0.13948   1.00
C6       0.27990    1.10663    0.13740   1.00
C6       0.36793    1.12010    0.17007   1.00
C6       0.30877    0.95961    0.24204   1.00
H2       0.28827    1.03842    0.23336   1.00
C6       0.23839    0.99636    0.26161   1.00
H2       0.20013    1.03346    0.20242   1.00
C6       0.09269    0.96484    0.20076   1.00
C6       0.15344    1.04461    0.22916   1.00
H2       0.16413    0.83847    0.22969   1.00
C6       0.09675    0.85425    0.24886   1.00
C6       0.07367    0.81689    0.21302   1.00
C6       0.35308    0.96729    0.15098   1.00
C6       0.29645    0.97813    0.11969   1.00
H2       0.38334    1.05765    0.13385   1.00
H2       0.24279    1.06755    0.12728   1.00
C6       0.24168    1.14087    0.14735   1.00
C6       0.33663    1.16188    0.12352   1.00
H2       0.35666    1.16151    0.17143   1.00
C6       0.36714    1.09588    0.19225   1.00
C6       0.44376    1.15391    0.16274   1.00
H2       0.33389    0.96124    0.22774   1.00
H2       0.28266    0.90697    0.24750   1.00
H2       0.34919    0.99064    0.25284   1.00
H2       0.27899    1.04385    0.26809   1.00
H2       0.19153    0.99847    0.26229   1.00
H2       0.23220    0.95547    0.27174   1.00
H2       0.08523    1.00377    0.19331   1.00
H2       0.09202    0.93141    0.18880   1.00
H2       0.04906    0.93564    0.21073   1.00
H2       0.20186    1.07816    0.23665   1.00
H2       0.13716    1.07799    0.22218   1.00
H2       0.11553    1.01389    0.24061   1.00
H2       0.07393    0.88675    0.24975   1.00
H2       0.05634    0.80159    0.25148   1.00
H2       0.13196    0.86626    0.26143   1.00
H2       0.03000    0.82453    0.21470   1.00
H2       0.08842    0.82550    0.19719   1.00
H2       0.05555    0.76301    0.21608   1.00
H2       0.30825    0.91746    0.15352   1.00
H2       0.38906    0.95891    0.14212   1.00
H2       0.37699    0.98777    0.16559   1.00
H2       0.32686    0.96147    0.11110   1.00
H2       0.24778    0.93274    0.12291   1.00
H2       0.28732    1.01071    0.10953   1.00
H2       0.21897    1.15765    0.13568   1.00
H2       0.19999    1.10508    0.15709   1.00
H2       0.27579    1.18528    0.15645   1.00
H2       0.36485    1.14179    0.11543   1.00
H2       0.31397    1.17938    0.11203   1.00
H2       0.37271    1.20639    0.13228   1.00
H2       0.37532    1.05238    0.19290   1.00
H2       0.40593    1.13666    0.20160   1.00
H2       0.31815    1.08071    0.19921   1.00
H2       0.47723    1.19660    0.17257   1.00
H2       0.46213    1.11754    0.16293   1.00
H2       0.45000    1.17435    0.14743   1.00
C4       1.01993    0.52017    0.66578   1.00
C4       0.96631    0.49143    0.68046   1.00
C3       1.03099    0.48093    0.65106   1.00
C3       0.92236    0.42020    0.68309   1.00
C3       1.06603    0.59201    0.66587   1.00
C3       0.95537    0.53583    0.69330   1.00
C2       1.13159    0.58172    0.63726   1.00
C2       0.86002    0.43727    0.71081   1.00
C3       1.08549    0.51076    0.63727   1.00
C3       0.87026    0.39384    0.69771   1.00
C3       1.11993    0.62128    0.65158   1.00
C3       0.90448    0.50819    0.70851   1.00
H1       0.99964    0.42956    0.64989   1.00
H1       0.92717    0.38536    0.67455   1.00
C5       1.05782    0.63417    0.68018   1.00
C5       0.99556    0.60752    0.69102   1.00
H1       1.09124    0.47975    0.62707   1.00
H1       0.83966    0.34189    0.69881   1.00
H1       1.15145    0.67309    0.65146   1.00
H1       0.90016    0.54056    0.71842   1.00
O3       1.10847    0.70115    0.68247   1.00
O3       0.97739    0.65081    0.70034   1.00
Si1      1.16721    0.72131    0.69974   1.00
Si1      0.92278    0.66685    0.68907   1.00
C6       1.21988    0.80712    0.69238   1.00
C6       1.12908    0.71551    0.72352   1.00
C6       1.21049    0.67486    0.69762   1.00
C6       0.88714    0.62554    0.66580   1.00
C6       0.85776    0.64207    0.70718   1.00
C6       0.96253    0.75594    0.68607   1.00
C6       1.23565    0.81975    0.66912   1.00
H2       1.18795    0.82934    0.69586   1.00
C6       1.28972    0.85394    0.70329   1.00
H2       1.08676    0.72332    0.71946   1.00
C6       1.09638    0.64588    0.73508   1.00
C6       1.17079    0.77077    0.73996   1.00
H2       1.22244    0.67917    0.68144   1.00
C6       1.28031    0.70376    0.70900   1.00
C6       1.17187    0.59658    0.70275   1.00
C6       0.93685    0.63540    0.64799   1.00
C6       0.83117    0.54818    0.66576   1.00
H2       0.85950    0.65099    0.66084   1.00
H2       0.83360    0.58661    0.70751   1.00
C6       0.88147    0.66585    0.72949   1.00
C6       0.79989    0.65869    0.70255   1.00
H2       0.95683    0.77414    0.70087   1.00
C6       1.04087    0.79421    0.68206   1.00
C6       0.93153    0.78460    0.67029   1.00
H2       1.18888    0.79801    0.66014   1.00
H2       1.26581    0.79722    0.66388   1.00
H2       1.26404    0.87426    0.66566   1.00
H2       1.30002    0.90653    0.70374   1.00
H2       1.29075    0.83838    0.71881   1.00
H2       1.33259    0.85513    0.69532   1.00
H2       1.06250    0.64452    0.74712   1.00
H2       1.06534    0.60296    0.72515   1.00
H2       1.13535    0.63775    0.74213   1.00
H2       1.18787    0.82210    0.73429   1.00
H2       1.13970    0.76446    0.75337   1.00
H2       1.21507    0.76748    0.74493   1.00
H2       1.27504    0.71224    0.72504   1.00
H2       1.30100    0.66931    0.70801   1.00
H2       1.31900    0.75130    0.70228   1.00
H2       1.17491    0.58712    0.71885   1.00
H2       1.11829    0.57068    0.69879   1.00
H2       1.19462    0.57115    0.69440   1.00
H2       0.95654    0.60040    0.64916   1.00
H2       0.91043    0.62538    0.63342   1.00
H2       0.97999    0.68715    0.64733   1.00
H2       0.80755    0.53274    0.65078   1.00
H2       0.85195    0.51532    0.66941   1.00
H2       0.78994    0.53708    0.67637   1.00
H2       0.83893    0.63867    0.74003   1.00
H2       0.92132    0.65485    0.73414   1.00
H2       0.90096    0.72036    0.73144   1.00
H2       0.77870    0.64192    0.68740   1.00
H2       0.75778    0.63230    0.71329   1.00
H2       0.81826    0.71325    0.70387   1.00
H2       1.05361    0.77838    0.66788   1.00
H2       1.06215    0.84941    0.68158   1.00
H2       1.06657    0.78384    0.69427   1.00
H2       0.95383    0.83973    0.67206   1.00
H2       0.94119    0.77501    0.65473   1.00
H2       0.87664    0.76214    0.67224   1.00
C4       0.50100    -0.01970   0.66571   1.00
C4       0.52575    0.03397    0.68037   1.00
C3       0.45789    -0.02545   0.64928   1.00
C3       0.50493    0.08359    0.68116   1.00
C3       0.51921    -0.07138   0.66761   1.00
C3       0.57416    0.03899    0.69514   1.00
C2       0.45037    -0.13164   0.63728   1.00
C2       0.57699    0.14003    0.71079   1.00
C3       0.43294    -0.08006   0.63552   1.00
C3       0.53030    0.13555    0.69582   1.00
C3       0.49454    -0.12536   0.65334   1.00
C3       0.59687    0.08997    0.71031   1.00
H1       0.44355    0.00999    0.64679   1.00
H1       0.47041    0.08320    0.67117   1.00
C5       0.56218    -0.06864   0.68368   1.00
C5       0.59924    -0.00717   0.69481   1.00
H1       0.40153    -0.08180   0.62402   1.00
H1       0.51388    0.17038    0.69555   1.00
H1       0.50956    -0.16102   0.65456   1.00
H1       0.62814    0.09022    0.72154   1.00
O3       0.57036    -0.12398   0.68746   1.00
O3       0.65538    0.00471    0.70621   1.00
Si1      0.52159    -0.18118   0.70407   1.00
Si1      0.73141    0.05377    0.69690   1.00
C6       0.54836    -0.24073   0.69897   1.00
C6       0.54830    -0.14467   0.72834   1.00
C6       0.43371    -0.21610   0.69913   1.00
C6       0.73831    0.09186    0.67295   1.00
C6       0.77067    0.11765    0.71538   1.00
C6       0.77334    0.00594    0.69655   1.00
C6       0.55130    -0.25714   0.67601   1.00
H2       0.60136    -0.21350   0.70405   1.00
C6       0.51479    -0.31153   0.71007   1.00
H2       0.60137    -0.10607   0.72558   1.00
C6       0.51416    -0.10569   0.73779   1.00
C6       0.55026    -0.19015   0.74590   1.00
H2       0.43057    -0.22791   0.68296   1.00
C6       0.38338    -0.28474   0.70999   1.00
C6       0.39992    -0.17061   0.70200   1.00
C6       0.70119    0.04408    0.65452   1.00
C6       0.72532    0.15343    0.67112   1.00
H2       0.79263    0.11463    0.66967   1.00
H2       0.74446    0.14686    0.71406   1.00
C6       0.76035    0.09279    0.73795   1.00
C6       0.84844    0.16973    0.71277   1.00
H2       0.79126    0.00920    0.71211   1.00
C6       0.72790    -0.07190   0.69230   1.00
C6       0.83780    0.03139    0.68272   1.00
H2       0.58326    -0.21088   0.66730   1.00
H2       0.50045    -0.28268   0.66922   1.00
H2       0.57322    -0.29022   0.67409   1.00
H2       0.55263    -0.32744   0.71238   1.00
H2       0.49407    -0.31053   0.72485   1.00
H2       0.47352    -0.35181   0.70123   1.00
H2       0.54446    -0.07378   0.75048   1.00
H2       0.51026    -0.07162   0.72693   1.00
H2       0.46331    -0.14111   0.74358   1.00
H2       0.58185    -0.21229   0.74193   1.00
H2       0.57259    -0.16023   0.75968   1.00
H2       0.49902    -0.23112   0.74970   1.00
H2       0.39141    -0.28072   0.72638   1.00
H2       0.32999    -0.29999   0.70716   1.00
H2       0.38910    -0.32665   0.70432   1.00
H2       0.38256    -0.17220   0.71754   1.00
H2       0.43350    -0.11745   0.69825   1.00
H2       0.35521    -0.18889   0.69217   1.00
H2       0.64762    0.02986    0.65384   1.00
H2       0.72453    0.06987    0.64026   1.00
H2       0.70411    -0.00244   0.65494   1.00
H2       0.74082    0.17725    0.65616   1.00
H2       0.67177    0.13795    0.67296   1.00
H2       0.75478    0.19338    0.68215   1.00
H2       0.77629    0.13589    0.74831   1.00
H2       0.70672    0.05689    0.74121   1.00
H2       0.78982    0.06807    0.74161   1.00
H2       0.86020    0.19144    0.69753   1.00
H2       0.86459    0.21232    0.72334   1.00
H2       0.87933    0.14604    0.71583   1.00
H2       0.70456    -0.08202   0.67730   1.00
H2       0.75694    -0.09839   0.69353   1.00
H2       0.68719    -0.09460   0.70343   1.00
H2       0.86493    0.00396    0.68616   1.00
H2       0.82396    0.02339    0.66667   1.00
H2       0.87396    0.08540    0.68502   1.00
C4       0.47931    0.49902    0.66571   1.00
C4       0.50823    0.47427    0.68038   1.00
C3       0.51676    0.54241    0.64934   1.00
C3       0.57872    0.49534    0.68122   1.00
C3       0.40933    0.48053    0.66755   1.00
C3       0.46477    0.42559    0.69507   1.00
C2       0.41799    0.54964    0.63728   1.00
C2       0.56302    0.42300    0.71079   1.00
C3       0.48710    0.56735    0.63558   1.00
C3       0.60530    0.46995    0.69589   1.00
C3       0.38002    0.50520    0.65328   1.00
C3       0.49302    0.40287    0.71025   1.00
H1       0.56662    0.55697    0.64690   1.00
H1       0.61289    0.53006    0.67129   1.00
C5       0.36900    0.43728    0.68356   1.00
C5       0.39350    0.40027    0.69468   1.00
H1       0.51683    0.59896    0.62412   1.00
H1       0.65659    0.48657    0.69566   1.00
H1       0.32928    0.48998    0.65446   1.00
H1       0.46193    0.37139    0.72143   1.00
O3       0.30533    0.42879    0.68729   1.00
O3       0.34925    0.34392    0.70600   1.00
Si1      0.29648    0.47722    0.70393   1.00
Si1      0.32265    0.26805    0.69662   1.00
C6       0.21016    0.45020    0.69875   1.00
C6       0.30612    0.45030    0.72818   1.00
C6       0.34923    0.56520    0.69910   1.00
C6       0.35423    0.26160    0.67269   1.00
C6       0.34728    0.22876    0.71509   1.00
C6       0.23289    0.22583    0.69618   1.00
C6       0.19105    0.44747    0.67578   1.00
H2       0.18449    0.39714    0.70377   1.00
C6       0.17256    0.48340    0.70986   1.00
H2       0.29189    0.39733    0.72537   1.00
C6       0.37914    0.48457    0.73771   1.00
C6       0.25838    0.44792    0.74572   1.00
H2       0.34072    0.56849    0.68292   1.00
C6       0.33053    0.61521    0.70998   1.00
C6       0.42851    0.59922    0.70204   1.00
C6       0.34361    0.29883    0.65428   1.00
C6       0.42891    0.27490    0.67091   1.00
H2       0.32289    0.20731    0.66934   1.00
H2       0.40272    0.25516    0.71382   1.00
C6       0.33240    0.23871    0.73765   1.00
C6       0.32190    0.15107    0.71240   1.00
H2       0.21809    0.20769    0.71171   1.00
C6       0.20028    0.27109    0.69194   1.00
C6       0.19424    0.16152    0.68227   1.00
H2       0.20562    0.41575    0.66705   1.00
H2       0.21627    0.49840    0.66904   1.00
H2       0.13605    0.42538    0.67381   1.00
H2       0.11883    0.44538    0.71209   1.00
H2       0.19407    0.50398    0.72467   1.00
H2       0.17349    0.52469    0.70104   1.00
H2       0.38074    0.45419    0.75038   1.00
H2       0.41731    0.48876    0.72688   1.00
H2       0.39432    0.53530    0.74355   1.00
H2       0.20471    0.41622    0.74168   1.00
H2       0.26591    0.42550    0.75949   1.00
H2       0.26840    0.49905    0.74956   1.00
H2       0.32635    0.60697    0.72636   1.00
H2       0.36857    0.66868    0.70722   1.00
H2       0.28290    0.60936    0.70427   1.00
H2       0.44404    0.61642    0.71761   1.00
H2       0.44831    0.56584    0.69829   1.00
H2       0.45491    0.64407    0.69227   1.00
H2       0.38281    0.35245    0.65366   1.00
H2       0.34634    0.27573    0.64000   1.00
H2       0.29406    0.29569    0.65466   1.00
H2       0.43750    0.25966    0.65595   1.00
H2       0.46682    0.32848    0.67282   1.00
H2       0.43942    0.24542    0.68193   1.00
H2       0.35955    0.22279    0.74802   1.00
H2       0.34988    0.29225    0.74097   1.00
H2       0.27817    0.20902    0.74125   1.00
H2       0.33210    0.13957    0.69716   1.00
H2       0.34834    0.13494    0.72298   1.00
H2       0.26730    0.11998    0.71539   1.00
H2       0.21359    0.29461    0.67696   1.00
H2       0.14474    0.24185    0.69311   1.00
H2       0.21801    0.31164    0.70311   1.00
H2       0.13963    0.13416    0.68565   1.00
H2       0.20023    0.17555    0.66623   1.00
H2       0.21225    0.12548    0.68456   1.00
C4       0.47723    -0.02597   0.16779   1.00
C4       0.50668    0.02929    0.18193   1.00
C3       0.50121    -0.07255   0.16491   1.00
C3       0.56673    0.04721    0.19323   1.00
C3       0.42131    -0.03504   0.15555   1.00
C3       0.47470    0.06915    0.18513   1.00
C2       0.41709    -0.13435   0.13818   1.00
C2       0.56392    0.14274    0.20989   1.00
C3       0.47226    -0.12502   0.15044   1.00
C3       0.59423    0.10196    0.20697   1.00
C3       0.39198    -0.08907   0.14130   1.00
C3       0.50487    0.12590    0.19839   1.00
H1       0.54026    -0.06986   0.17329   1.00
H1       0.59249    0.02129    0.19172   1.00
C5       0.39485    0.00973    0.15767   1.00
C5       0.41319    0.05266    0.17496   1.00
H1       0.49206    -0.15685   0.14893   1.00
H1       0.63742    0.11219    0.21486   1.00
H1       0.35068    -0.09610   0.13302   1.00
H1       0.48380    0.15654    0.19953   1.00
O3       0.34891    0.00803    0.14365   1.00
O3       0.37447    0.08146    0.18074   1.00
Si1      0.37610    0.05952    0.12419   1.00
Si1      0.32001    0.04664    0.19926   1.00
C6       0.29765    0.02399    0.11112   1.00
C6       0.40097    0.14204    0.13318   1.00
C6       0.43840    0.05312    0.10978   1.00
C6       0.31531    -0.02480   0.21167   1.00
C6       0.34572    0.11383    0.21665   1.00
C6       0.23926    0.02630    0.18979   1.00
C6       0.25757    -0.05570   0.10916   1.00
H2       0.26693    0.03611    0.12120   1.00
C6       0.29256    0.05125    0.08967   1.00
H2       0.37024    0.13099    0.14690   1.00
C6       0.47662    0.18873    0.14008   1.00
C6       0.38386    0.18911    0.12004   1.00
H2       0.41553    -0.00202   0.10799   1.00
C6       0.45252    0.08343    0.08780   1.00
C6       0.51145    0.07956    0.11897   1.00
C6       0.29939    -0.08863   0.19856   1.00
C6       0.37311    -0.01437   0.22680   1.00
H2       0.27086    -0.04139   0.22145   1.00
H2       0.39402    0.12132    0.22253   1.00
C6       0.36246    0.18441    0.20754   1.00
C6       0.29886    0.10131    0.23547   1.00
H2       0.23933    0.07451    0.19043   1.00
C6       0.22505    0.00396    0.16712   1.00
C6       0.17466    -0.02635   0.20188   1.00
H2       0.24863    -0.08033   0.12397   1.00
H2       0.28540    -0.07352   0.09980   1.00
H2       0.20746    -0.07385   0.10229   1.00
H2       0.24283    0.04763    0.08790   1.00
H2       0.33130    0.10418    0.08722   1.00
H2       0.29698    0.02144    0.07735   1.00
H2       0.48179    0.23148    0.14917   1.00
H2       0.49451    0.16152    0.14956   1.00
H2       0.51063    0.21000    0.12705   1.00
H2       0.32939    0.16471    0.11681   1.00
H2       0.39721    0.23660    0.12798   1.00
H2       0.41200    0.20265    0.10574   1.00
H2       0.46460    0.13655    0.08789   1.00
H2       0.49502    0.08147    0.08057   1.00
H2       0.40906    0.05424    0.07791   1.00
H2       0.54548    0.13373    0.11601   1.00
H2       0.51128    0.07247    0.13522   1.00
H2       0.53488    0.05217    0.11217   1.00
H2       0.34514    -0.08330   0.19139   1.00
H2       0.27841    -0.13435   0.20803   1.00
H2       0.26202    -0.09831   0.18676   1.00
H2       0.35827    -0.06123   0.23531   1.00
H2       0.42062    -0.00104   0.21908   1.00
H2       0.38338    0.02493    0.23805   1.00
H2       0.38876    0.22492    0.21876   1.00
H2       0.39634    0.19783    0.19444   1.00
H2       0.31654    0.18494    0.20282   1.00
H2       0.28612    0.05380    0.24321   1.00
H2       0.32481    0.14239    0.24655   1.00
H2       0.25156    0.09982    0.23117   1.00
H2       0.22623    -0.04289   0.16431   1.00
H2       0.17566    -0.00380   0.16214   1.00
H2       0.26348    0.04358    0.15757   1.00
H2       0.12897    -0.02669   0.19633   1.00
H2       0.16617    -0.07808   0.20034   1.00
H2       0.17888    -0.01390   0.21798   1.00
C4       1.02317    0.49462    0.16695   1.00
C4       0.96932    0.47010    0.18155   1.00
C3       1.07607    0.47827    0.16735   1.00
C3       0.96641    0.43200    0.19901   1.00
C3       1.02535    0.53883    0.15117   1.00
C3       0.91493    0.48395    0.17868   1.00
C2       1.13215    0.54899    0.13746   1.00
C2       0.85946    0.42365    0.21061   1.00
C3       1.12928    0.50499    0.15309   1.00
C3       0.91269    0.40886    0.21305   1.00
C3       1.07876    0.56422    0.13670   1.00
C3       0.86281    0.46268    0.19345   1.00
H1       1.07736    0.44629    0.17798   1.00
H1       1.00345    0.42031    0.20211   1.00
C5       0.97400    0.55717    0.14989   1.00
C5       0.91306    0.51944    0.16121   1.00
H1       1.16641    0.49177    0.15423   1.00
H1       0.91296    0.38102    0.22530   1.00
H1       1.07862    0.59436    0.12514   1.00
H1       0.82662    0.47674    0.19185   1.00
O3       0.98227    0.60834    0.13686   1.00
O3       0.85495    0.52160    0.15610   1.00
Si1      1.01609    0.68660    0.14513   1.00
Si1      0.79546    0.45873    0.14306   1.00
C6       1.02341    0.72570    0.12138   1.00
C6       0.95487    0.69105    0.16057   1.00
C6       1.09675    0.71681    0.15652   1.00
C6       0.80702    0.38922    0.13685   1.00
C6       0.72310    0.43017    0.15852   1.00
C6       0.78215    0.49391    0.12089   1.00
C6       1.05505    0.70356    0.10386   1.00
H2       0.97011    0.70558    0.11714   1.00
C6       1.05775    0.80525    0.11946   1.00
H2       0.90729    0.64932    0.15460   1.00
C6       0.95444    0.67657    0.18379   1.00
C6       0.94732    0.75597    0.15920   1.00
H2       1.12284    0.70193    0.14545   1.00
C6       1.14263    0.79585    0.15925   1.00
C6       1.10195    0.68667    0.17749   1.00
C6       0.87234    0.40422    0.12468   1.00
C6       0.79768    0.33633    0.15366   1.00
H2       0.76454    0.35976    0.12653   1.00
H2       0.73355    0.40636    0.17136   1.00
C6       0.71119    0.48685    0.16796   1.00
C6       0.65312    0.37496    0.14952   1.00
H2       0.74915    0.51348    0.12583   1.00
C6       0.84619    0.55675    0.11171   1.00
C6       0.74447    0.44487    0.10269   1.00
H2       1.02725    0.64832    0.10173   1.00
H2       1.10835    0.71940    0.10698   1.00
H2       1.05296    0.72599    0.08938   1.00
H2       1.03329    0.81833    0.10735   1.00
H2       1.05407    0.82935    0.13329   1.00
H2       1.11173    0.82925    0.11551   1.00
H2       0.90643    0.66658    0.19073   1.00
H2       0.95901    0.63174    0.18673   1.00
H2       0.99565    0.72012    0.19165   1.00
H2       0.93714    0.76514    0.14369   1.00
H2       0.90432    0.75013    0.16831   1.00
H2       0.99314    0.80110    0.16473   1.00
H2       1.11542    0.81707    0.16736   1.00
H2       1.18938    0.80949    0.16767   1.00
H2       1.15969    0.82145    0.14471   1.00
H2       1.09582    0.71377    0.19027   1.00
H2       1.06455    0.63320    0.17937   1.00
H2       1.15214    0.69115    0.17905   1.00
H2       0.91624    0.42035    0.13459   1.00
H2       0.86443    0.35832    0.11680   1.00
H2       0.88549    0.44337    0.11318   1.00
H2       0.79690    0.29178    0.14693   1.00
H2       0.83891    0.35740    0.16470   1.00
H2       0.74957    0.31717    0.16178   1.00
H2       0.67249    0.46536    0.17989   1.00
H2       0.75765    0.52717    0.17499   1.00
H2       0.69403    0.51019    0.15667   1.00
H2       0.65606    0.33211    0.14308   1.00
H2       0.61418    0.35421    0.16140   1.00
H2       0.63534    0.39638    0.13777   1.00
H2       0.88469    0.54429    0.10684   1.00
H2       0.83291    0.57786    0.09874   1.00
H2       0.86930    0.59694    0.12298   1.00
H2       0.73016    0.47037    0.09123   1.00
H2       0.77676    0.42807    0.09531   1.00
H2       0.69751    0.39981    0.10751   1.00
C4       0.50567    0.52827    0.16676   1.00
C4       0.53027    0.49911    0.18139   1.00
C3       0.52942    0.59923    0.16532   1.00
C3       0.57640    0.53713    0.19718   1.00
C3       0.45366    0.48440    0.15291   1.00
C3       0.50804    0.42805    0.18031   1.00
C2       0.45091    0.58289    0.13740   1.00
C2       0.57645    0.43610    0.21067   1.00
C3       0.50256    0.62579    0.15113   1.00
C3       0.59937    0.50665    0.21131   1.00
C3       0.42814    0.51233    0.13845   1.00
C3       0.52952    0.39779    0.19521   1.00
H1       0.56709    0.63371    0.17449   1.00
H1       0.59433    0.58798    0.19896   1.00
C5       0.42769    0.41295    0.15353   1.00
C5       0.46406    0.38741    0.16450   1.00
H1       0.52138    0.67750    0.15089   1.00
H1       0.63318    0.53678    0.22230   1.00
H1       0.39219    0.48045    0.12825   1.00
H1       0.50975    0.34613    0.19499   1.00
O3       0.37015    0.36999    0.14256   1.00
O3       0.45281    0.32250    0.16078   1.00
Si1      0.29525    0.33609    0.15332   1.00
Si1      0.50666    0.31353    0.14650   1.00
C6       0.24627    0.29968    0.13123   1.00
C6       0.28887    0.27269    0.17016   1.00
C6       0.27763    0.39696    0.16414   1.00
C6       0.57867    0.38783    0.13716   1.00
C6       0.53356    0.26889    0.16222   1.00
C6       0.45985    0.25954    0.12626   1.00
C6       0.26681    0.34756    0.11222   1.00
H2       0.25929    0.26070    0.12734   1.00
C6       0.16627    0.26170    0.13192   1.00
H2       0.32464    0.25911    0.16352   1.00
C6       0.31267    0.29342    0.19261   1.00
C6       0.21934    0.20429    0.17170   1.00
H2       0.29229    0.43446    0.15195   1.00
C6       0.20132    0.37318    0.16916   1.00
C6       0.31771    0.43736    0.18357   1.00
C6       0.56635    0.43868    0.12428   1.00
C6       0.63929    0.43253    0.15183   1.00
H2       0.60056    0.36684    0.12660   1.00
H2       0.56460    0.30622    0.17373   1.00
C6       0.47617    0.20717    0.17422   1.00
C6       0.57960    0.24317    0.15248   1.00
H2       0.43714    0.20836    0.13270   1.00
C6       0.39831    0.26585    0.11839   1.00
C6       0.49992    0.25903    0.10696   1.00
H2       0.32059    0.36860    0.10840   1.00
H2       0.25786    0.39012    0.11482   1.00
H2       0.23763    0.31976    0.09884   1.00
H2       0.14506    0.21978    0.12098   1.00
H2       0.14569    0.24021    0.14673   1.00
H2       0.14620    0.29505    0.12783   1.00
H2       0.31989    0.25442    0.20012   1.00
H2       0.36136    0.34065    0.19354   1.00
H2       0.27494    0.29924    0.20134   1.00
H2       0.20268    0.17987    0.15690   1.00
H2       0.22362    0.16746    0.18143   1.00
H2       0.17963    0.21271    0.17808   1.00
H2       0.17877    0.32765    0.17870   1.00
H2       0.19585    0.41267    0.17708   1.00
H2       0.17112    0.36262    0.15544   1.00
H2       0.29329    0.41015    0.19752   1.00
H2       0.36995    0.44799    0.18400   1.00
H2       0.31971    0.48660    0.18421   1.00
H2       0.55849    0.47337    0.13385   1.00
H2       0.61061    0.47011    0.11471   1.00
H2       0.52260    0.41250    0.11424   1.00
H2       0.68343    0.47060    0.14329   1.00
H2       0.62633    0.46020    0.16277   1.00
H2       0.65656    0.40229    0.16013   1.00
H2       0.49845    0.19028    0.18600   1.00
H2       0.44215    0.22122    0.18189   1.00
H2       0.44537    0.16372    0.16437   1.00
H2       0.62251    0.28369    0.14423   1.00
H2       0.60105    0.22532    0.16425   1.00
H2       0.55057    0.20069    0.14211   1.00
H2       0.41426    0.31627    0.11220   1.00
H2       0.36971    0.22800    0.10670   1.00
H2       0.36316    0.25684    0.13077   1.00
H2       0.46715    0.21654    0.09696   1.00
H2       0.51873    0.30608    0.09823   1.00
H2       0.54328    0.25283    0.11087   1.00
C4       0.64086    0.81096    0.66561   1.00
C4       0.69613    0.84033    0.65147   1.00
C3       0.59736    0.83801    0.66954   1.00
C3       0.71725    0.90298    0.64126   1.00
C3       0.62855    0.75182    0.67675   1.00
C3       0.73263    0.80552    0.64714   1.00
C2       0.53230    0.75058    0.69516   1.00
C2       0.80941    0.89711    0.62345   1.00
C3       0.54482    0.80892    0.68398   1.00
C3       0.77192    0.93031    0.62748   1.00
C3       0.57448    0.72249    0.69099   1.00
C3       0.78940    0.83538    0.63388   1.00
H1       0.60242    0.87951    0.66197   1.00
H1       0.69383    0.93082    0.64361   1.00
C5       0.67015    0.72220    0.67354   1.00
C5       0.71279    0.74148    0.65618   1.00
H1       0.51530    0.83101    0.68629   1.00
H1       0.78454    0.97550    0.62041   1.00
H1       0.56507    0.67897    0.69846   1.00
H1       0.81767    0.81200    0.63193   1.00
O3       0.66560    0.67255    0.68659   1.00
O3       0.73817    0.70090    0.64925   1.00
Si1      0.71714    0.69381    0.70598   1.00
Si1      0.70102    0.65038    0.63002   1.00
C6       0.67782    0.61302    0.71778   1.00
C6       0.79848    0.71584    0.69657   1.00
C6       0.71492    0.75569    0.72176   1.00
C6       0.63164    0.65224    0.61837   1.00
C6       0.76759    0.67575    0.61242   1.00
C6       0.67625    0.56693    0.63800   1.00
C6       0.59824    0.57642    0.71983   1.00
H2       0.68758    0.58247    0.70693   1.00
C6       0.70388    0.60222    0.73876   1.00
H2       0.78583    0.68739    0.68236   1.00
C6       0.84841    0.79195    0.69074   1.00
C6       0.84291    0.69295    0.70877   1.00
H2       0.66017    0.73530    0.72371   1.00
C6       0.74516    0.76438    0.74365   1.00
C6       0.74511    0.83080    0.71382   1.00
C6       0.56895    0.63751    0.63187   1.00
C6       0.64539    0.71374    0.60437   1.00
H2       0.61278    0.60932    0.60786   1.00
H2       0.77789    0.72601    0.60748   1.00
C6       0.83689    0.68692    0.62104   1.00
C6       0.75249    0.63171    0.59279   1.00
H2       0.72286    0.56410    0.63680   1.00
C6       0.65377    0.54965    0.66058   1.00
C6       0.62122    0.50594    0.62518   1.00
H2       0.57385    0.57143    0.70514   1.00
H2       0.58279    0.60448    0.72996   1.00
H2       0.57752    0.52479    0.72584   1.00
H2       0.69722    0.55100    0.73952   1.00
H2       0.75752    0.63832    0.74141   1.00
H2       0.67536    0.60643    0.75150   1.00
H2       0.89005    0.79623    0.68128   1.00
H2       0.82324    0.81375    0.68198   1.00
H2       0.87115    0.82327    0.70421   1.00
H2       0.81587    0.63788    0.71113   1.00
H2       0.88966    0.70513    0.70057   1.00
H2       0.85781    0.71847    0.72348   1.00
H2       0.79727    0.77350    0.74318   1.00
H2       0.74596    0.80691    0.75179   1.00
H2       0.71418    0.71974    0.75293   1.00
H2       0.79965    0.86189    0.71687   1.00
H2       0.73823    0.83399    0.69768   1.00
H2       0.72013    0.85540    0.72143   1.00
H2       0.57702    0.68294    0.63993   1.00
H2       0.52340    0.62049    0.62250   1.00
H2       0.55723    0.59756    0.64297   1.00
H2       0.59913    0.70293    0.59611   1.00
H2       0.66130    0.76038    0.61292   1.00
H2       0.68402    0.72387    0.59290   1.00
H2       0.87771    0.71345    0.60992   1.00
H2       0.85204    0.71857    0.63468   1.00
H2       0.83449    0.63882    0.62477   1.00
H2       0.70574    0.62297    0.58535   1.00
H2       0.79383    0.65782    0.58180   1.00
H2       0.74804    0.58239    0.59610   1.00
H2       0.60856    0.55327    0.66397   1.00
H2       0.64314    0.49844    0.66461   1.00
H2       0.69452    0.58497    0.67047   1.00
H2       0.61801    0.45799    0.62976   1.00
H2       0.57068    0.50017    0.62714   1.00
H2       0.63351    0.51240    0.60906   1.00
C4       0.17031    0.35621    0.66661   1.00
C4       0.14358    0.30119    0.65238   1.00
C3       0.21524    0.36320    0.68264   1.00
C3       0.15408    0.24453    0.65386   1.00
C3       0.15055    0.40684    0.66505   1.00
C3       0.10421    0.30234    0.63564   1.00
C2       0.21945    0.46714    0.69537   1.00
C2       0.08651    0.19115    0.62324   1.00
C3       0.23885    0.41689    0.69670   1.00
C3       0.12688    0.19133    0.63960   1.00
C3       0.17595    0.46131    0.67916   1.00
C3       0.07483    0.24681    0.62192   1.00
H1       0.23231    0.32962    0.68453   1.00
H1       0.18142    0.24003    0.66542   1.00
C5       0.10579    0.40287    0.64937   1.00
C5       0.09380    0.35849    0.63274   1.00
H1       0.27085    0.41904    0.70807   1.00
H1       0.13663    0.15195    0.64134   1.00
H1       0.16284    0.49827    0.67752   1.00
H1       0.04320    0.24631    0.61077   1.00
O3       0.07797    0.44482    0.64990   1.00
O3       0.06786    0.36721    0.61473   1.00
Si1      0.00340    0.41791    0.66033   1.00
Si1      0.12005    0.40560    0.59592   1.00
C6       0.00399    0.49611    0.65943   1.00
C6       -0.05834   0.35752    0.64375   1.00
C6       -0.00126   0.38973    0.68556   1.00
C6       0.20719    0.43163    0.59925   1.00
C6       0.08606    0.34530    0.57628   1.00
C6       0.11101    0.47585    0.58906   1.00
C6       0.07097    0.56021    0.66706   1.00
H2       0.00214    0.50378    0.64314   1.00
C6       -0.05590   0.50319    0.66882   1.00
H2       -0.03224   0.37290    0.62915   1.00
C6       -0.07960   0.28076    0.64644   1.00
C6       -0.12687   0.35760    0.64078   1.00
H2       0.04529    0.43114    0.69222   1.00
C6       -0.06151   0.38296    0.69896   1.00
C6       0.00008    0.32211    0.68981   1.00
C6       0.24617    0.48068    0.61727   1.00
C6       0.23035    0.37700    0.59885   1.00
H2       0.23021    0.46160    0.58557   1.00
H2       0.09633    0.30522    0.58110   1.00
C6       0.00691    0.30915    0.57333   1.00
C6       0.11847    0.36836    0.55474   1.00
H2       0.06536    0.45368    0.57958   1.00
C6       0.09563    0.51221    0.60664   1.00
C6       0.16887    0.53381    0.57607   1.00
H2       0.11573    0.56627    0.65895   1.00
H2       0.07893    0.55650    0.68326   1.00
H2       0.06920    0.60703    0.66456   1.00
H2       -0.06390   0.53944    0.65998   1.00
H2       -0.10395   0.45528    0.66913   1.00
H2       -0.04500   0.52275    0.68433   1.00
H2       -0.10621   0.25136    0.63295   1.00
H2       -0.03570   0.27396    0.64853   1.00
H2       -0.11394   0.25808    0.65933   1.00
H2       -0.11785   0.40744    0.63585   1.00
H2       -0.15836   0.32143    0.62901   1.00
H2       -0.15673   0.34327    0.65476   1.00
H2       -0.11060   0.35094    0.69157   1.00
H2       -0.06306   0.36074    0.71383   1.00
H2       -0.05601   0.43252    0.70216   1.00
H2       -0.05079   0.27718    0.68923   1.00
H2       0.03161    0.31335    0.67928   1.00
H2       0.02039    0.32375    0.70499   1.00
H2       0.23822    0.45295    0.63144   1.00
H2       0.30107    0.50824    0.61438   1.00
H2       0.23096    0.51882    0.61955   1.00
H2       0.28598    0.40168    0.59821   1.00
H2       0.21415    0.34490    0.61231   1.00
H2       0.21126    0.34412    0.58554   1.00
H2       -0.01055   0.26502    0.56331   1.00
H2       -0.01999   0.29014    0.58773   1.00
H2       -0.00891   0.34317    0.56668   1.00
H2       0.17393    0.39249    0.55523   1.00
H2       0.10019    0.32431    0.54463   1.00
H2       0.10499    0.40392    0.54786   1.00
H2       0.13688    0.53455    0.61772   1.00
H2       0.08680    0.55249    0.60098   1.00
H2       0.04960    0.47577    0.61454   1.00
H2       0.15265    0.56868    0.57023   1.00
H2       0.21505    0.56387    0.58503   1.00
H2       0.18205    0.51345    0.56294   1.00
C4       0.18598    0.82958    0.66654   1.00
C4       0.15763    0.85628    0.65233   1.00
C3       0.14732    0.78201    0.68195   1.00
C3       0.08937    0.84294    0.65325   1.00
C3       0.25714    0.85212    0.66564   1.00
C3       0.19926    0.89863    0.63618   1.00
C2       0.24777    0.78058    0.69535   1.00
C2       0.10454    0.91346    0.62326   1.00
C3       0.17739    0.75845    0.69604   1.00
C3       0.06333    0.87020    0.63901   1.00
C3       0.28625    0.82677    0.67975   1.00
C3       0.17291    0.92795    0.62251   1.00
H1       0.09615    0.76290    0.68336   1.00
H1       0.05669    0.81337    0.66436   1.00
C5       0.29868    0.89961    0.65059   1.00
C5       0.26708    0.91204    0.63384   1.00
H1       0.14697    0.72445    0.70694   1.00
H1       0.01341    0.85833    0.64033   1.00
H1       0.33697    0.84195    0.67856   1.00
H1       0.20463    0.96162    0.61183   1.00
O3       0.36860    0.92974    0.65183   1.00
O3       0.30347    0.94118    0.61628   1.00
Si1      0.41271    1.00333    0.66315   1.00
Si1      0.29394    0.89199    0.59700   1.00
C6       0.49206    1.00622    0.66280   1.00
C6       0.41335    1.06581    0.64705   1.00
C6       0.38548    1.00365    0.68822   1.00
C6       0.23501    0.80379    0.59924   1.00
C6       0.26795    0.92656    0.57745   1.00
C6       0.37530    0.90513    0.59078   1.00
C6       0.49116    0.93969    0.66990   1.00
H2       0.50364    1.01051    0.64660   1.00
C6       0.55664    1.06643    0.67310   1.00
H2       0.40531    1.04171    0.63219   1.00
C6       0.35544    1.08384    0.64950   1.00
C6       0.48071    1.13612    0.64508   1.00
H2       0.38148    0.95710    0.69448   1.00
C6       0.43580    1.06312    0.70243   1.00
C6       0.31463    0.99882    0.69197   1.00
C6       0.24486    0.76385    0.61703   1.00
C6       0.15668    0.77786    0.59812   1.00
H2       0.24476    0.78334    0.58545   1.00
H2       0.21643    0.91374    0.58183   1.00
C6       0.30869    1.00612    0.57540   1.00
C6       0.26241    0.89723    0.55561   1.00
H2       0.39839    0.95195    0.58182   1.00
C6       0.42533    0.92015    0.60883   1.00
C6       0.37952    0.85026    0.57737   1.00
H2       0.45460    0.89532    0.66118   1.00
H2       0.47767    0.92935    0.68593   1.00
H2       0.54098    0.94384    0.66776   1.00
H2       0.60253    1.07729    0.66464   1.00
H2       0.55464    1.11334    0.67376   1.00
H2       0.56411    1.05419    0.68858   1.00
H2       0.35303    1.11143    0.63620   1.00
H2       0.30538    1.03850    0.65090   1.00
H2       0.36428    1.11626    0.66272   1.00
H2       0.52336    1.12969    0.64038   1.00
H2       0.47596    1.16817    0.63352   1.00
H2       0.49357    1.16417    0.65939   1.00
H2       0.45194    1.11276    0.69554   1.00
H2       0.41285    1.06185    0.71716   1.00
H2       0.48063    1.05924    0.70591   1.00
H2       0.31852    1.04884    0.69181   1.00
H2       0.27616    0.96761    0.68092   1.00
H2       0.29466    0.97624    0.70685   1.00
H2       0.22262    0.76896    0.63110   1.00
H2       0.21972    0.70940    0.61353   1.00
H2       0.29837    0.78073    0.61979   1.00
H2       0.12763    0.72225    0.59684   1.00
H2       0.13814    0.79128    0.61157   1.00
H2       0.14336    0.79760    0.58487   1.00
H2       0.28190    1.02331    0.56533   1.00
H2       0.31384    1.03091    0.59004   1.00
H2       0.35967    1.02458    0.56923   1.00
H2       0.23282    0.84164    0.55547   1.00
H2       0.23651    0.91527    0.54547   1.00
H2       0.31269    0.91340    0.54920   1.00
H2       0.40652    0.87762    0.61945   1.00
H2       0.47573    0.93161    0.60359   1.00
H2       0.43213    0.96452    0.61713   1.00
H2       0.43165    0.86906    0.57202   1.00
H2       0.36401    0.80330    0.58586   1.00
H2       0.34743    0.83760    0.56392   1.00
