data_IRMOF10_interpen_symm_ligand1cp_symm_a

_audit_creation_method             'generated by an auxiliary program of Tobunporous'

_symmetry_space_group_name_H-M     'P 1'
_symmetry_Int_Tables_number        1
_symmetry_cell_setting             triclinic

_cell_length_a                    22.6523
_cell_length_b                    22.6523
_cell_length_c                    65.9502
_cell_angle_alpha                 90.0000
_cell_angle_beta                  90.0000
_cell_angle_gamma                 120.0000

loop_
_atom_site_label
_atom_site_fract_x
_atom_site_fract_y
_atom_site_fract_z
_atom_site_occupancy
O1       0.00000    0.00000    0.57470   1.00
Zn      0.00000    0.00000    0.54560   1.00
Zn      0.94843    0.04287    0.58357   1.00
Zn      0.09443    0.05157    0.58357   1.00
Zn      0.95713    0.90557    0.58357   1.00
O2       0.93860    0.02610    0.53560   1.00
O2       0.08750    0.06140    0.53560   1.00
O2       0.97390    0.91250    0.53560   1.00
O2       0.91300    0.07160    0.56150   1.00
O2       0.00463    0.12027    0.60077   1.00
O2       0.87413    0.98077    0.60037   1.00
O2       0.15860    0.08700    0.56150   1.00
O2       0.10663    0.12587    0.60037   1.00
O2       0.11563    0.99537    0.60077   1.00
O2       0.92840    0.84140    0.56150   1.00
O2       0.87973    0.88437    0.60077   1.00
O2       0.01923    0.89337    0.60037   1.00
C1       0.91390    0.06020    0.54330   1.00
C1       0.14630    0.08610    0.54330   1.00
C1       0.93980    0.85370    0.54330   1.00
C1       0.06663    0.14397    0.60637   1.00
C1       0.85603    0.92267    0.60637   1.00
C1       0.07733    0.93337    0.60637   1.00
O1       0.00000    0.00000    0.92530   1.00
Zn      0.00000    0.00000    0.95440   1.00
Zn      0.04287    0.94843    0.91643   1.00
Zn      0.05157    0.09443    0.91643   1.00
Zn      0.90557    0.95713    0.91643   1.00
O2       0.02610    0.93860    0.96440   1.00
O2       0.06140    0.08750    0.96440   1.00
O2       0.91250    0.97390    0.96440   1.00
O2       0.07160    0.91300    0.93850   1.00
O2       0.12027    0.00463    0.89923   1.00
O2       0.98077    0.87413    0.89963   1.00
O2       0.08700    0.15860    0.93850   1.00
O2       0.12587    0.10663    0.89963   1.00
O2       0.99537    0.11563    0.89923   1.00
O2       0.84140    0.92840    0.93850   1.00
O2       0.88437    0.87973    0.89923   1.00
O2       0.89337    0.01923    0.89963   1.00
C1       0.06020    0.91390    0.95670   1.00
C1       0.08610    0.14630    0.95670   1.00
C1       0.85370    0.93980    0.95670   1.00
C1       0.14397    0.06663    0.89363   1.00
C1       0.92267    0.85603    0.89363   1.00
C1       0.93337    0.07733    0.89363   1.00
O1       0.00000    0.00000    0.42530   1.00
Zn      0.00000    0.00000    0.45440   1.00
Zn      0.05157    0.95713    0.41643   1.00
Zn      0.90557    0.94843    0.41643   1.00
Zn      0.04287    0.09443    0.41643   1.00
O2       0.06140    0.97390    0.46440   1.00
O2       0.91250    0.93860    0.46440   1.00
O2       0.02610    0.08750    0.46440   1.00
O2       0.08700    0.92840    0.43850   1.00
O2       0.99537    0.87973    0.39923   1.00
O2       0.12587    0.01923    0.39963   1.00
O2       0.84140    0.91300    0.43850   1.00
O2       0.89337    0.87413    0.39963   1.00
O2       0.88437    0.00463    0.39923   1.00
O2       0.07160    0.15860    0.43850   1.00
O2       0.12027    0.11563    0.39923   1.00
O2       0.98077    0.10663    0.39963   1.00
C1       0.08610    0.93980    0.45670   1.00
C1       0.85370    0.91390    0.45670   1.00
C1       0.06020    0.14630    0.45670   1.00
C1       0.93337    0.85603    0.39363   1.00
C1       0.14397    0.07733    0.39363   1.00
C1       0.92267    0.06663    0.39363   1.00
O1       0.00000    0.00000    0.07470   1.00
Zn      0.00000    0.00000    0.04560   1.00
Zn      0.95713    0.05157    0.08357   1.00
Zn      0.94843    0.90557    0.08357   1.00
Zn      0.09443    0.04287    0.08357   1.00
O2       0.97390    0.06140    0.03560   1.00
O2       0.93860    0.91250    0.03560   1.00
O2       0.08750    0.02610    0.03560   1.00
O2       0.92840    0.08700    0.06150   1.00
O2       0.87973    0.99537    0.10077   1.00
O2       0.01923    0.12587    0.10037   1.00
O2       0.91300    0.84140    0.06150   1.00
O2       0.87413    0.89337    0.10037   1.00
O2       0.00463    0.88437    0.10077   1.00
O2       0.15860    0.07160    0.06150   1.00
O2       0.11563    0.12027    0.10077   1.00
O2       0.10663    0.98077    0.10037   1.00
C1       0.93980    0.08610    0.04330   1.00
C1       0.91390    0.85370    0.04330   1.00
C1       0.14630    0.06020    0.04330   1.00
C1       0.85603    0.93337    0.10637   1.00
C1       0.07733    0.14397    0.10637   1.00
C1       0.06663    0.92267    0.10637   1.00
O1       0.66667    0.33333    0.90803   1.00
Zn      0.66667    0.33333    0.87893   1.00
Zn      0.61510    0.37620    0.91690   1.00
Zn      0.76110    0.38490    0.91690   1.00
Zn      0.62380    0.23890    0.91690   1.00
O2       0.60527    0.35943    0.86893   1.00
O2       0.75417    0.39473    0.86893   1.00
O2       0.64057    0.24583    0.86893   1.00
O2       0.57967    0.40493    0.89483   1.00
O2       0.67130    0.45360    0.93410   1.00
O2       0.54080    0.31410    0.93370   1.00
O2       0.82527    0.42033    0.89483   1.00
O2       0.77330    0.45920    0.93370   1.00
O2       0.78230    0.32870    0.93410   1.00
O2       0.59507    0.17473    0.89483   1.00
O2       0.54640    0.21770    0.93410   1.00
O2       0.68590    0.22670    0.93370   1.00
C1       0.58057    0.39353    0.87663   1.00
C1       0.81297    0.41943    0.87663   1.00
C1       0.60647    0.18703    0.87663   1.00
C1       0.73330    0.47730    0.93970   1.00
C1       0.52270    0.25600    0.93970   1.00
C1       0.74400    0.26670    0.93970   1.00
O1       0.66667    0.33333    0.25863   1.00
Zn      0.66667    0.33333    0.28773   1.00
Zn      0.70953    0.28177    0.24977   1.00
Zn      0.71823    0.42777    0.24977   1.00
Zn      0.57223    0.29047    0.24977   1.00
O2       0.69277    0.27193    0.29773   1.00
O2       0.72807    0.42083    0.29773   1.00
O2       0.57917    0.30723    0.29773   1.00
O2       0.73827    0.24633    0.27183   1.00
O2       0.78693    0.33797    0.23257   1.00
O2       0.64743    0.20747    0.23297   1.00
O2       0.75367    0.49193    0.27183   1.00
O2       0.79253    0.43997    0.23297   1.00
O2       0.66203    0.44897    0.23257   1.00
O2       0.50807    0.26173    0.27183   1.00
O2       0.55103    0.21307    0.23257   1.00
O2       0.56003    0.35257    0.23297   1.00
C1       0.72687    0.24723    0.29003   1.00
C1       0.75277    0.47963    0.29003   1.00
C1       0.52037    0.27313    0.29003   1.00
C1       0.81063    0.39997    0.22697   1.00
C1       0.58933    0.18937    0.22697   1.00
C1       0.60003    0.41067    0.22697   1.00
O1       0.66667    0.33333    0.75863   1.00
Zn      0.66667    0.33333    0.78773   1.00
Zn      0.71823    0.29047    0.74977   1.00
Zn      0.57223    0.28177    0.74977   1.00
Zn      0.70953    0.42777    0.74977   1.00
O2       0.72807    0.30723    0.79773   1.00
O2       0.57917    0.27193    0.79773   1.00
O2       0.69277    0.42083    0.79773   1.00
O2       0.75367    0.26173    0.77183   1.00
O2       0.66203    0.21307    0.73257   1.00
O2       0.79253    0.35257    0.73297   1.00
O2       0.50807    0.24633    0.77183   1.00
O2       0.56003    0.20747    0.73297   1.00
O2       0.55103    0.33797    0.73257   1.00
O2       0.73827    0.49193    0.77183   1.00
O2       0.78693    0.44897    0.73257   1.00
O2       0.64743    0.43997    0.73297   1.00
C1       0.75277    0.27313    0.79003   1.00
C1       0.52037    0.24723    0.79003   1.00
C1       0.72687    0.47963    0.79003   1.00
C1       0.60003    0.18937    0.72697   1.00
C1       0.81063    0.41067    0.72697   1.00
C1       0.58933    0.39997    0.72697   1.00
O1       0.66667    0.33333    0.40803   1.00
Zn      0.66667    0.33333    0.37893   1.00
Zn      0.62380    0.38490    0.41690   1.00
Zn      0.61510    0.23890    0.41690   1.00
Zn      0.76110    0.37620    0.41690   1.00
O2       0.64057    0.39473    0.36893   1.00
O2       0.60527    0.24583    0.36893   1.00
O2       0.75417    0.35943    0.36893   1.00
O2       0.59507    0.42033    0.39483   1.00
O2       0.54640    0.32870    0.43410   1.00
O2       0.68590    0.45920    0.43370   1.00
O2       0.57967    0.17473    0.39483   1.00
O2       0.54080    0.22670    0.43370   1.00
O2       0.67130    0.21770    0.43410   1.00
O2       0.82527    0.40493    0.39483   1.00
O2       0.78230    0.45360    0.43410   1.00
O2       0.77330    0.31410    0.43370   1.00
C1       0.60647    0.41943    0.37663   1.00
C1       0.58057    0.18703    0.37663   1.00
C1       0.81297    0.39353    0.37663   1.00
C1       0.52270    0.26670    0.43970   1.00
C1       0.74400    0.47730    0.43970   1.00
C1       0.73330    0.25600    0.43970   1.00
O1       0.33333    0.66667    0.24137   1.00
Zn      0.33333    0.66667    0.21227   1.00
Zn      0.28177    0.70953    0.25023   1.00
Zn      0.42777    0.71823    0.25023   1.00
Zn      0.29047    0.57223    0.25023   1.00
O2       0.27193    0.69277    0.20227   1.00
O2       0.42083    0.72807    0.20227   1.00
O2       0.30723    0.57917    0.20227   1.00
O2       0.24633    0.73827    0.22817   1.00
O2       0.33797    0.78693    0.26743   1.00
O2       0.20747    0.64743    0.26703   1.00
O2       0.49193    0.75367    0.22817   1.00
O2       0.43997    0.79253    0.26703   1.00
O2       0.44897    0.66203    0.26743   1.00
O2       0.26173    0.50807    0.22817   1.00
O2       0.21307    0.55103    0.26743   1.00
O2       0.35257    0.56003    0.26703   1.00
C1       0.24723    0.72687    0.20997   1.00
C1       0.47963    0.75277    0.20997   1.00
C1       0.27313    0.52037    0.20997   1.00
C1       0.39997    0.81063    0.27303   1.00
C1       0.18937    0.58933    0.27303   1.00
C1       0.41067    0.60003    0.27303   1.00
O1       0.33333    0.66667    0.59197   1.00
Zn      0.33333    0.66667    0.62107   1.00
Zn      0.37620    0.61510    0.58310   1.00
Zn      0.38490    0.76110    0.58310   1.00
Zn      0.23890    0.62380    0.58310   1.00
O2       0.35943    0.60527    0.63107   1.00
O2       0.39473    0.75417    0.63107   1.00
O2       0.24583    0.64057    0.63107   1.00
O2       0.40493    0.57967    0.60517   1.00
O2       0.45360    0.67130    0.56590   1.00
O2       0.31410    0.54080    0.56630   1.00
O2       0.42033    0.82527    0.60517   1.00
O2       0.45920    0.77330    0.56630   1.00
O2       0.32870    0.78230    0.56590   1.00
O2       0.17473    0.59507    0.60517   1.00
O2       0.21770    0.54640    0.56590   1.00
O2       0.22670    0.68590    0.56630   1.00
C1       0.39353    0.58057    0.62337   1.00
C1       0.41943    0.81297    0.62337   1.00
C1       0.18703    0.60647    0.62337   1.00
C1       0.47730    0.73330    0.56030   1.00
C1       0.25600    0.52270    0.56030   1.00
C1       0.26670    0.74400    0.56030   1.00
O1       0.33333    0.66667    0.09197   1.00
Zn      0.33333    0.66667    0.12107   1.00
Zn      0.38490    0.62380    0.08310   1.00
Zn      0.23890    0.61510    0.08310   1.00
Zn      0.37620    0.76110    0.08310   1.00
O2       0.39473    0.64057    0.13107   1.00
O2       0.24583    0.60527    0.13107   1.00
O2       0.35943    0.75417    0.13107   1.00
O2       0.42033    0.59507    0.10517   1.00
O2       0.32870    0.54640    0.06590   1.00
O2       0.45920    0.68590    0.06630   1.00
O2       0.17473    0.57967    0.10517   1.00
O2       0.22670    0.54080    0.06630   1.00
O2       0.21770    0.67130    0.06590   1.00
O2       0.40493    0.82527    0.10517   1.00
O2       0.45360    0.78230    0.06590   1.00
O2       0.31410    0.77330    0.06630   1.00
C1       0.41943    0.60647    0.12337   1.00
C1       0.18703    0.58057    0.12337   1.00
C1       0.39353    0.81297    0.12337   1.00
C1       0.26670    0.52270    0.06030   1.00
C1       0.47730    0.74400    0.06030   1.00
C1       0.25600    0.73330    0.06030   1.00
O1       0.33333    0.66667    0.74137   1.00
Zn      0.33333    0.66667    0.71227   1.00
Zn      0.29047    0.71823    0.75023   1.00
Zn      0.28177    0.57223    0.75023   1.00
Zn      0.42777    0.70953    0.75023   1.00
O2       0.30723    0.72807    0.70227   1.00
O2       0.27193    0.57917    0.70227   1.00
O2       0.42083    0.69277    0.70227   1.00
O2       0.26173    0.75367    0.72817   1.00
O2       0.21307    0.66203    0.76743   1.00
O2       0.35257    0.79253    0.76703   1.00
O2       0.24633    0.50807    0.72817   1.00
O2       0.20747    0.56003    0.76703   1.00
O2       0.33797    0.55103    0.76743   1.00
O2       0.49193    0.73827    0.72817   1.00
O2       0.44897    0.78693    0.76743   1.00
O2       0.43997    0.64743    0.76703   1.00
C1       0.27313    0.75277    0.70997   1.00
C1       0.24723    0.52037    0.70997   1.00
C1       0.47963    0.72687    0.70997   1.00
C1       0.18937    0.60003    0.77303   1.00
C1       0.41067    0.81063    0.77303   1.00
C1       0.39997    0.58933    0.77303   1.00
C2       0.77983    0.51456    0.46214   1.00
C3       0.77167    0.50756    0.48212   1.00
H1       0.74813    0.46390    0.48756   1.00
C3       0.81603    0.57879    0.45456   1.00
H1       0.82321    0.58481    0.44064   1.00
C4       0.79695    0.56247    0.49508   1.00
C5       0.78798    0.55454    0.51797   1.00
H2       0.82407    0.54936    0.52372   1.00
H2       0.74490    0.51496    0.52103   1.00
H2       0.78915    0.59414    0.52360   1.00
C4       0.84249    0.63539    0.46699   1.00
C5       0.88510    0.70848    0.45818   1.00
H2       0.85619    0.72744    0.45591   1.00
H2       0.90565    0.70679    0.44564   1.00
H2       0.92020    0.73659    0.46765   1.00
C6       0.83414    0.62763    0.48756   1.00
C6       0.86339    0.68809    0.50106   1.00
C4       0.92729    0.71235    0.50964   1.00
C5       0.97033    0.68326    0.50341   1.00
H2       0.96216    0.64643    0.51232   1.00
H2       0.01724    0.71776    0.50409   1.00
H2       0.95898    0.66651    0.48971   1.00
C4       0.82396    0.71806    0.50505   1.00
C5       0.75284    0.69287    0.49628   1.00
H2       0.75671    0.71418    0.48334   1.00
H2       0.72697    0.70428    0.50536   1.00
H2       0.73029    0.64440    0.49453   1.00
C3       0.95161    0.76689    0.52293   1.00
H1       0.99495    0.78402    0.52848   1.00
C3       0.85223    0.77347    0.51942   1.00
H1       0.82692    0.79410    0.52275   1.00
C2       0.91370    0.79640    0.52810   1.00
C2       0.48544    0.26527    0.46214   1.00
C3       0.49244    0.26411    0.48212   1.00
H1       0.53610    0.28423    0.48756   1.00
C3       0.42121    0.23724    0.45456   1.00
H1       0.41519    0.23840    0.44064   1.00
C4       0.43753    0.23448    0.49508   1.00
C5       0.44546    0.23344    0.51797   1.00
H2       0.45064    0.27471    0.52372   1.00
H2       0.48504    0.22994    0.52103   1.00
H2       0.40586    0.19501    0.52360   1.00
C4       0.36461    0.20710    0.46699   1.00
C5       0.29152    0.17662    0.45818   1.00
H2       0.27256    0.12875    0.45591   1.00
H2       0.29321    0.19886    0.44564   1.00
H2       0.26341    0.18361    0.46765   1.00
C6       0.37237    0.20651    0.48756   1.00
C6       0.31191    0.17530    0.50106   1.00
C4       0.28765    0.21494    0.50964   1.00
C5       0.31674    0.28707    0.50341   1.00
H2       0.35357    0.31573    0.51232   1.00
H2       0.28224    0.29948    0.50409   1.00
H2       0.33349    0.29247    0.48971   1.00
C4       0.28194    0.10590    0.50505   1.00
C5       0.30713    0.05997    0.49628   1.00
H2       0.28582    0.04253    0.48334   1.00
H2       0.29572    0.02269    0.50536   1.00
H2       0.35560    0.08589    0.49453   1.00
C3       0.23311    0.18472    0.52293   1.00
H1       0.21598    0.21093    0.52848   1.00
C3       0.22653    0.07876    0.51942   1.00
H1       0.20590    0.03282    0.52275   1.00
C2       0.20360    0.11730    0.52810   1.00
C2       0.73473    0.22017    0.46214   1.00
C3       0.73589    0.22833    0.48212   1.00
H1       0.71577    0.25187    0.48756   1.00
C3       0.76276    0.18397    0.45456   1.00
H1       0.76160    0.17679    0.44064   1.00
C4       0.76552    0.20305    0.49508   1.00
C5       0.76656    0.21202    0.51797   1.00
H2       0.72529    0.17593    0.52372   1.00
H2       0.77006    0.25510    0.52103   1.00
H2       0.80499    0.21085    0.52360   1.00
C4       0.79290    0.15751    0.46699   1.00
C5       0.82338    0.11490    0.45818   1.00
H2       0.87125    0.14381    0.45591   1.00
H2       0.80114    0.09435    0.44564   1.00
H2       0.81639    0.07980    0.46765   1.00
C6       0.79349    0.16586    0.48756   1.00
C6       0.82470    0.13661    0.50106   1.00
C4       0.78506    0.07271    0.50964   1.00
C5       0.71293    0.02967    0.50341   1.00
H2       0.68427    0.03784    0.51232   1.00
H2       0.70052    -0.01724   0.50409   1.00
H2       0.70753    0.04102    0.48971   1.00
C4       0.89410    0.17604    0.50505   1.00
C5       0.94003    0.24716    0.49628   1.00
H2       0.95747    0.24329    0.48334   1.00
H2       0.97731    0.27303    0.50536   1.00
H2       0.91411    0.26971    0.49453   1.00
C3       0.81528    0.04839    0.52293   1.00
H1       0.78907    0.00505    0.52848   1.00
C3       0.92124    0.14777    0.51942   1.00
H1       0.96718    0.17308    0.52275   1.00
C2       0.88270    0.08630    0.52810   1.00
C2       0.51456    0.77983    0.03786   1.00
C3       0.50756    0.77167    0.01788   1.00
H1       0.46390    0.74813    0.01244   1.00
C3       0.57879    0.81603    0.04544   1.00
H1       0.58481    0.82321    0.05936   1.00
C4       0.56247    0.79695    0.00492   1.00
C5       0.55454    0.78798    0.98203   1.00
H2       0.54936    0.82407    0.97628   1.00
H2       0.51496    0.74490    0.97897   1.00
H2       0.59414    0.78915    0.97640   1.00
C4       0.63539    0.84249    0.03301   1.00
C5       0.70848    0.88510    0.04182   1.00
H2       0.72744    0.85619    0.04409   1.00
H2       0.70679    0.90565    0.05436   1.00
H2       0.73659    0.92020    0.03235   1.00
C6       0.62763    0.83414    0.01244   1.00
C6       0.68809    0.86339    0.99894   1.00
C4       0.71235    0.92729    0.99036   1.00
C5       0.68326    0.97033    0.99659   1.00
H2       0.64643    0.96216    0.98768   1.00
H2       0.71776    0.01724    0.99591   1.00
H2       0.66651    0.95898    0.01029   1.00
C4       0.71806    0.82396    0.99495   1.00
C5       0.69287    0.75284    0.00372   1.00
H2       0.71418    0.75671    0.01666   1.00
H2       0.70428    0.72697    0.99464   1.00
H2       0.64440    0.73029    0.00547   1.00
C3       0.76689    0.95161    0.97707   1.00
H1       0.78402    0.99495    0.97152   1.00
C3       0.77347    0.85223    0.98058   1.00
H1       0.79410    0.82692    0.97725   1.00
C2       0.79640    0.91370    0.97190   1.00
C2       0.26527    0.48544    0.03786   1.00
C3       0.26411    0.49244    0.01788   1.00
H1       0.28423    0.53610    0.01244   1.00
C3       0.23724    0.42121    0.04544   1.00
H1       0.23840    0.41519    0.05936   1.00
C4       0.23448    0.43753    0.00492   1.00
C5       0.23344    0.44546    0.98203   1.00
H2       0.27471    0.45064    0.97628   1.00
H2       0.22994    0.48504    0.97897   1.00
H2       0.19501    0.40586    0.97640   1.00
C4       0.20710    0.36461    0.03301   1.00
C5       0.17662    0.29152    0.04182   1.00
H2       0.12875    0.27256    0.04409   1.00
H2       0.19886    0.29321    0.05436   1.00
H2       0.18361    0.26341    0.03235   1.00
C6       0.20651    0.37237    0.01244   1.00
C6       0.17530    0.31191    0.99894   1.00
C4       0.21494    0.28765    0.99036   1.00
C5       0.28707    0.31674    0.99659   1.00
H2       0.31573    0.35357    0.98768   1.00
H2       0.29948    0.28224    0.99591   1.00
H2       0.29247    0.33349    0.01029   1.00
C4       0.10590    0.28194    0.99495   1.00
C5       0.05997    0.30713    0.00372   1.00
H2       0.04253    0.28582    0.01666   1.00
H2       0.02269    0.29572    0.99464   1.00
H2       0.08589    0.35560    0.00547   1.00
C3       0.18472    0.23311    0.97707   1.00
H1       0.21093    0.21598    0.97152   1.00
C3       0.07876    0.22653    0.98058   1.00
H1       0.03282    0.20590    0.97725   1.00
C2       0.11730    0.20360    0.97190   1.00
C2       0.22017    0.73473    0.03786   1.00
C3       0.22833    0.73589    0.01788   1.00
H1       0.25187    0.71577    0.01244   1.00
C3       0.18397    0.76276    0.04544   1.00
H1       0.17679    0.76160    0.05936   1.00
C4       0.20305    0.76552    0.00492   1.00
C5       0.21202    0.76656    0.98203   1.00
H2       0.17593    0.72529    0.97628   1.00
H2       0.25510    0.77006    0.97897   1.00
H2       0.21085    0.80499    0.97640   1.00
C4       0.15751    0.79290    0.03301   1.00
C5       0.11490    0.82338    0.04182   1.00
H2       0.14381    0.87125    0.04409   1.00
H2       0.09435    0.80114    0.05436   1.00
H2       0.07980    0.81639    0.03235   1.00
C6       0.16586    0.79349    0.01244   1.00
C6       0.13661    0.82470    0.99894   1.00
C4       0.07271    0.78506    0.99036   1.00
C5       0.02967    0.71293    0.99659   1.00
H2       0.03784    0.68427    0.98768   1.00
H2       -0.01724   0.70052    0.99591   1.00
H2       0.04102    0.70753    0.01029   1.00
C4       0.17604    0.89410    0.99495   1.00
C5       0.24716    0.94003    0.00372   1.00
H2       0.24329    0.95747    0.01666   1.00
H2       0.27303    0.97731    0.99464   1.00
H2       0.26971    0.91411    0.00547   1.00
C3       0.04839    0.81528    0.97707   1.00
H1       0.00505    0.78907    0.97152   1.00
C3       0.14777    0.92124    0.98058   1.00
H1       0.17308    0.96718    0.97725   1.00
C2       0.08630    0.88270    0.97190   1.00
C2       0.22017    0.48544    0.53786   1.00
C3       0.22833    0.49244    0.51788   1.00
H1       0.25187    0.53610    0.51244   1.00
C3       0.18397    0.42121    0.54544   1.00
H1       0.17679    0.41519    0.55936   1.00
C4       0.20305    0.43753    0.50492   1.00
C5       0.21202    0.44546    0.48203   1.00
H2       0.17593    0.45064    0.47628   1.00
H2       0.25510    0.48504    0.47897   1.00
H2       0.21085    0.40586    0.47640   1.00
C4       0.15751    0.36461    0.53301   1.00
C5       0.11490    0.29152    0.54182   1.00
H2       0.14381    0.27256    0.54409   1.00
H2       0.09435    0.29321    0.55436   1.00
H2       0.07980    0.26341    0.53235   1.00
C6       0.16586    0.37237    0.51244   1.00
C6       0.13661    0.31191    0.49894   1.00
C4       0.07271    0.28765    0.49036   1.00
C5       0.02967    0.31674    0.49659   1.00
H2       0.03784    0.35357    0.48768   1.00
H2       -0.01724   0.28224    0.49591   1.00
H2       0.04102    0.33349    0.51029   1.00
C4       0.17604    0.28194    0.49495   1.00
C5       0.24716    0.30713    0.50372   1.00
H2       0.24329    0.28582    0.51666   1.00
H2       0.27303    0.29572    0.49464   1.00
H2       0.26971    0.35560    0.50547   1.00
C3       0.04839    0.23311    0.47707   1.00
H1       0.00505    0.21598    0.47152   1.00
C3       0.14777    0.22653    0.48058   1.00
H1       0.17308    0.20590    0.47725   1.00
C2       0.08630    0.20360    0.47190   1.00
C2       0.51456    0.73473    0.53786   1.00
C3       0.50756    0.73589    0.51788   1.00
H1       0.46390    0.71577    0.51244   1.00
C3       0.57879    0.76276    0.54544   1.00
H1       0.58481    0.76160    0.55936   1.00
C4       0.56247    0.76552    0.50492   1.00
C5       0.55454    0.76656    0.48203   1.00
H2       0.54936    0.72529    0.47628   1.00
H2       0.51496    0.77006    0.47897   1.00
H2       0.59414    0.80499    0.47640   1.00
C4       0.63539    0.79290    0.53301   1.00
C5       0.70848    0.82338    0.54182   1.00
H2       0.72744    0.87125    0.54409   1.00
H2       0.70679    0.80114    0.55436   1.00
H2       0.73659    0.81639    0.53235   1.00
C6       0.62763    0.79349    0.51244   1.00
C6       0.68809    0.82470    0.49894   1.00
C4       0.71235    0.78506    0.49036   1.00
C5       0.68326    0.71293    0.49659   1.00
H2       0.64643    0.68427    0.48768   1.00
H2       0.71776    0.70052    0.49591   1.00
H2       0.66651    0.70753    0.51029   1.00
C4       0.71806    0.89410    0.49495   1.00
C5       0.69287    0.94003    0.50372   1.00
H2       0.71418    0.95747    0.51666   1.00
H2       0.70428    0.97731    0.49464   1.00
H2       0.64440    0.91411    0.50547   1.00
C3       0.76689    0.81528    0.47707   1.00
H1       0.78402    0.78907    0.47152   1.00
C3       0.77347    0.92124    0.48058   1.00
H1       0.79410    0.96718    0.47725   1.00
C2       0.79640    0.88270    0.47190   1.00
C2       0.26527    0.77983    0.53786   1.00
C3       0.26411    0.77167    0.51788   1.00
H1       0.28423    0.74813    0.51244   1.00
C3       0.23724    0.81603    0.54544   1.00
H1       0.23840    0.82321    0.55936   1.00
C4       0.23448    0.79695    0.50492   1.00
C5       0.23344    0.78798    0.48203   1.00
H2       0.27471    0.82407    0.47628   1.00
H2       0.22994    0.74490    0.47897   1.00
H2       0.19501    0.78915    0.47640   1.00
C4       0.20710    0.84249    0.53301   1.00
C5       0.17662    0.88510    0.54182   1.00
H2       0.12875    0.85619    0.54409   1.00
H2       0.19886    0.90565    0.55436   1.00
H2       0.18361    0.92020    0.53235   1.00
C6       0.20651    0.83414    0.51244   1.00
C6       0.17530    0.86339    0.49894   1.00
C4       0.21494    0.92729    0.49036   1.00
C5       0.28707    0.97033    0.49659   1.00
H2       0.31573    0.96216    0.48768   1.00
H2       0.29948    0.01724    0.49591   1.00
H2       0.29247    0.95898    0.51029   1.00
C4       0.10590    0.82396    0.49495   1.00
C5       0.05997    0.75284    0.50372   1.00
H2       0.04253    0.75671    0.51666   1.00
H2       0.02269    0.72697    0.49464   1.00
H2       0.08589    0.73029    0.50547   1.00
C3       0.18472    0.95161    0.47707   1.00
H1       0.21093    0.99495    0.47152   1.00
C3       0.07876    0.85223    0.48058   1.00
H1       0.03282    0.82692    0.47725   1.00
C2       0.11730    0.91370    0.47190   1.00
C2       0.48544    0.22017    0.96214   1.00
C3       0.49244    0.22833    0.98212   1.00
H1       0.53610    0.25187    0.98756   1.00
C3       0.42121    0.18397    0.95456   1.00
H1       0.41519    0.17679    0.94064   1.00
C4       0.43753    0.20305    0.99508   1.00
C5       0.44546    0.21202    0.01797   1.00
H2       0.45064    0.17593    0.02372   1.00
H2       0.48504    0.25510    0.02103   1.00
H2       0.40586    0.21085    0.02360   1.00
C4       0.36461    0.15751    0.96699   1.00
C5       0.29152    0.11490    0.95818   1.00
H2       0.27256    0.14381    0.95591   1.00
H2       0.29321    0.09435    0.94564   1.00
H2       0.26341    0.07980    0.96765   1.00
C6       0.37237    0.16586    0.98756   1.00
C6       0.31191    0.13661    0.00106   1.00
C4       0.28765    0.07271    0.00964   1.00
C5       0.31674    0.02967    0.00341   1.00
H2       0.35357    0.03784    0.01232   1.00
H2       0.28224    -0.01724   0.00409   1.00
H2       0.33349    0.04102    0.98971   1.00
C4       0.28194    0.17604    0.00505   1.00
C5       0.30713    0.24716    0.99628   1.00
H2       0.28582    0.24329    0.98334   1.00
H2       0.29572    0.27303    0.00536   1.00
H2       0.35560    0.26971    0.99453   1.00
C3       0.23311    0.04839    0.02293   1.00
H1       0.21598    0.00505    0.02848   1.00
C3       0.22653    0.14777    0.01942   1.00
H1       0.20590    0.17308    0.02275   1.00
C2       0.20360    0.08630    0.02810   1.00
C2       0.73473    0.51456    0.96214   1.00
C3       0.73589    0.50756    0.98212   1.00
H1       0.71577    0.46390    0.98756   1.00
C3       0.76276    0.57879    0.95456   1.00
H1       0.76160    0.58481    0.94064   1.00
C4       0.76552    0.56247    0.99508   1.00
C5       0.76656    0.55454    0.01797   1.00
H2       0.72529    0.54936    0.02372   1.00
H2       0.77006    0.51496    0.02103   1.00
H2       0.80499    0.59414    0.02360   1.00
C4       0.79290    0.63539    0.96699   1.00
C5       0.82338    0.70848    0.95818   1.00
H2       0.87125    0.72744    0.95591   1.00
H2       0.80114    0.70679    0.94564   1.00
H2       0.81639    0.73659    0.96765   1.00
C6       0.79349    0.62763    0.98756   1.00
C6       0.82470    0.68809    0.00106   1.00
C4       0.78506    0.71235    0.00964   1.00
C5       0.71293    0.68326    0.00341   1.00
H2       0.68427    0.64643    0.01232   1.00
H2       0.70052    0.71776    0.00409   1.00
H2       0.70753    0.66651    0.98971   1.00
C4       0.89410    0.71806    0.00505   1.00
C5       0.94003    0.69287    0.99628   1.00
H2       0.95747    0.71418    0.98334   1.00
H2       0.97731    0.70428    0.00536   1.00
H2       0.91411    0.64440    0.99453   1.00
C3       0.81528    0.76689    0.02293   1.00
H1       0.78907    0.78402    0.02848   1.00
C3       0.92124    0.77347    0.01942   1.00
H1       0.96718    0.79410    0.02275   1.00
C2       0.88270    0.79640    0.02810   1.00
C2       0.77983    0.26527    0.96214   1.00
C3       0.77167    0.26411    0.98212   1.00
H1       0.74813    0.28423    0.98756   1.00
C3       0.81603    0.23724    0.95456   1.00
H1       0.82321    0.23840    0.94064   1.00
C4       0.79695    0.23448    0.99508   1.00
C5       0.78798    0.23344    0.01797   1.00
H2       0.82407    0.27471    0.02372   1.00
H2       0.74490    0.22994    0.02103   1.00
H2       0.78915    0.19501    0.02360   1.00
C4       0.84249    0.20710    0.96699   1.00
C5       0.88510    0.17662    0.95818   1.00
H2       0.85619    0.12875    0.95591   1.00
H2       0.90565    0.19886    0.94564   1.00
H2       0.92020    0.18361    0.96765   1.00
C6       0.83414    0.20651    0.98756   1.00
C6       0.86339    0.17530    0.00106   1.00
C4       0.92729    0.21494    0.00964   1.00
C5       0.97033    0.28707    0.00341   1.00
H2       0.96216    0.31573    0.01232   1.00
H2       0.01724    0.29948    0.00409   1.00
H2       0.95898    0.29247    0.98971   1.00
C4       0.82396    0.10590    0.00505   1.00
C5       0.75284    0.05997    0.99628   1.00
H2       0.75671    0.04253    0.98334   1.00
H2       0.72697    0.02269    0.00536   1.00
H2       0.73029    0.08589    0.99453   1.00
C3       0.95161    0.18472    0.02293   1.00
H1       0.99495    0.21093    0.02848   1.00
C3       0.85223    0.07876    0.01942   1.00
H1       0.82692    0.03282    0.02275   1.00
C2       0.91370    0.11730    0.02810   1.00
C2       0.44650    0.84789    0.79547   1.00
C3       0.43834    0.84089    0.81545   1.00
H1       0.41480    0.79723    0.82089   1.00
C3       0.48270    0.91212    0.78789   1.00
H1       0.48988    0.91814    0.77397   1.00
C4       0.46362    0.89580    0.82841   1.00
C5       0.45465    0.88787    0.85130   1.00
H2       0.49074    0.88269    0.85705   1.00
H2       0.41157    0.84829    0.85436   1.00
H2       0.45582    0.92747    0.85693   1.00
C4       0.50916    0.96872    0.80032   1.00
C5       0.55177    0.04181    0.79151   1.00
H2       0.52286    0.06077    0.78924   1.00
H2       0.57232    0.04012    0.77897   1.00
H2       0.58687    0.06992    0.80098   1.00
C6       0.50081    0.96096    0.82089   1.00
C6       0.53006    0.02142    0.83439   1.00
C4       0.59396    0.04568    0.84297   1.00
C5       0.63700    0.01659    0.83674   1.00
H2       0.62883    0.97976    0.84565   1.00
H2       0.68391    0.05109    0.83742   1.00
H2       0.62565    0.99984    0.82304   1.00
C4       0.49063    0.05139    0.83838   1.00
C5       0.41951    0.02620    0.82961   1.00
H2       0.42338    0.04751    0.81667   1.00
H2       0.39364    0.03761    0.83869   1.00
H2       0.39696    0.97773    0.82786   1.00
C3       0.61828    0.10022    0.85626   1.00
H1       0.66162    0.11735    0.86181   1.00
C3       0.51890    0.10680    0.85275   1.00
H1       0.49359    0.12743    0.85608   1.00
C2       0.58037    0.12973    0.86143   1.00
C2       0.15211    0.59860    0.79547   1.00
C3       0.15911    0.59744    0.81545   1.00
H1       0.20277    0.61756    0.82089   1.00
C3       0.08788    0.57057    0.78789   1.00
H1       0.08186    0.57173    0.77397   1.00
C4       0.10420    0.56781    0.82841   1.00
C5       0.11213    0.56677    0.85130   1.00
H2       0.11731    0.60804    0.85705   1.00
H2       0.15171    0.56327    0.85436   1.00
H2       0.07253    0.52834    0.85693   1.00
C4       0.03128    0.54043    0.80032   1.00
C5       0.95819    0.50995    0.79151   1.00
H2       0.93923    0.46208    0.78924   1.00
H2       0.95988    0.53219    0.77897   1.00
H2       0.93008    0.51694    0.80098   1.00
C6       0.03904    0.53984    0.82089   1.00
C6       0.97858    0.50863    0.83439   1.00
C4       0.95432    0.54827    0.84297   1.00
C5       0.98341    0.62040    0.83674   1.00
H2       0.02024    0.64906    0.84565   1.00
H2       0.94891    0.63281    0.83742   1.00
H2       0.00016    0.62580    0.82304   1.00
C4       0.94861    0.43923    0.83838   1.00
C5       0.97380    0.39330    0.82961   1.00
H2       0.95249    0.37586    0.81667   1.00
H2       0.96239    0.35602    0.83869   1.00
H2       0.02227    0.41922    0.82786   1.00
C3       0.89978    0.51805    0.85626   1.00
H1       0.88265    0.54426    0.86181   1.00
C3       0.89320    0.41209    0.85275   1.00
H1       0.87257    0.36615    0.85608   1.00
C2       0.87027    0.45063    0.86143   1.00
C2       0.40140    0.55350    0.79547   1.00
C3       0.40256    0.56166    0.81545   1.00
H1       0.38244    0.58520    0.82089   1.00
C3       0.42943    0.51730    0.78789   1.00
H1       0.42827    0.51012    0.77397   1.00
C4       0.43219    0.53638    0.82841   1.00
C5       0.43323    0.54535    0.85130   1.00
H2       0.39196    0.50926    0.85705   1.00
H2       0.43673    0.58843    0.85436   1.00
H2       0.47166    0.54418    0.85693   1.00
C4       0.45957    0.49084    0.80032   1.00
C5       0.49005    0.44823    0.79151   1.00
H2       0.53792    0.47714    0.78924   1.00
H2       0.46781    0.42768    0.77897   1.00
H2       0.48306    0.41313    0.80098   1.00
C6       0.46016    0.49919    0.82089   1.00
C6       0.49137    0.46994    0.83439   1.00
C4       0.45173    0.40604    0.84297   1.00
C5       0.37960    0.36300    0.83674   1.00
H2       0.35094    0.37117    0.84565   1.00
H2       0.36719    0.31609    0.83742   1.00
H2       0.37420    0.37435    0.82304   1.00
C4       0.56077    0.50937    0.83838   1.00
C5       0.60670    0.58049    0.82961   1.00
H2       0.62414    0.57662    0.81667   1.00
H2       0.64398    0.60636    0.83869   1.00
H2       0.58078    0.60304    0.82786   1.00
C3       0.48195    0.38172    0.85626   1.00
H1       0.45574    0.33838    0.86181   1.00
C3       0.58791    0.48110    0.85275   1.00
H1       0.63385    0.50641    0.85608   1.00
C2       0.54937    0.41963    0.86143   1.00
C2       0.18123    0.11316    0.37119   1.00
C3       0.17423    0.10500    0.35121   1.00
H1       0.13057    0.08146    0.34577   1.00
C3       0.24546    0.14936    0.37877   1.00
H1       0.25148    0.15654    0.39269   1.00
C4       0.22914    0.13028    0.33825   1.00
C5       0.22121    0.12131    0.31536   1.00
H2       0.21603    0.15740    0.30961   1.00
H2       0.18163    0.07823    0.31230   1.00
H2       0.26081    0.12248    0.30973   1.00
C4       0.30206    0.17582    0.36634   1.00
C5       0.37515    0.21843    0.37515   1.00
H2       0.39411    0.18952    0.37742   1.00
H2       0.37346    0.23898    0.38769   1.00
H2       0.40326    0.25353    0.36568   1.00
C6       0.29430    0.16747    0.34577   1.00
C6       0.35476    0.19672    0.33227   1.00
C4       0.37902    0.26062    0.32369   1.00
C5       0.34993    0.30366    0.32992   1.00
H2       0.31310    0.29549    0.32101   1.00
H2       0.38443    0.35057    0.32924   1.00
H2       0.33318    0.29231    0.34362   1.00
C4       0.38473    0.15729    0.32828   1.00
C5       0.35954    0.08617    0.33705   1.00
H2       0.38085    0.09004    0.34999   1.00
H2       0.37095    0.06030    0.32797   1.00
H2       0.31107    0.06362    0.33880   1.00
C3       0.43356    0.28494    0.31040   1.00
H1       0.45069    0.32828    0.30485   1.00
C3       0.44014    0.18556    0.31391   1.00
H1       0.46077    0.16025    0.31058   1.00
C2       0.46307    0.24703    0.30523   1.00
C2       0.93194    0.81877    0.37119   1.00
C3       0.93078    0.82577    0.35121   1.00
H1       0.95090    0.86943    0.34577   1.00
C3       0.90391    0.75454    0.37877   1.00
H1       0.90507    0.74852    0.39269   1.00
C4       0.90115    0.77086    0.33825   1.00
C5       0.90011    0.77879    0.31536   1.00
H2       0.94138    0.78397    0.30961   1.00
H2       0.89661    0.81837    0.31230   1.00
H2       0.86168    0.73919    0.30973   1.00
C4       0.87377    0.69794    0.36634   1.00
C5       0.84329    0.62485    0.37515   1.00
H2       0.79542    0.60589    0.37742   1.00
H2       0.86553    0.62654    0.38769   1.00
H2       0.85028    0.59674    0.36568   1.00
C6       0.87318    0.70570    0.34577   1.00
C6       0.84197    0.64524    0.33227   1.00
C4       0.88161    0.62098    0.32369   1.00
C5       0.95374    0.65007    0.32992   1.00
H2       0.98240    0.68690    0.32101   1.00
H2       0.96615    0.61557    0.32924   1.00
H2       0.95914    0.66682    0.34362   1.00
C4       0.77257    0.61527    0.32828   1.00
C5       0.72664    0.64046    0.33705   1.00
H2       0.70920    0.61915    0.34999   1.00
H2       0.68936    0.62905    0.32797   1.00
H2       0.75256    0.68893    0.33880   1.00
C3       0.85139    0.56644    0.31040   1.00
H1       0.87760    0.54931    0.30485   1.00
C3       0.74543    0.55986    0.31391   1.00
H1       0.69949    0.53923    0.31058   1.00
C2       0.78397    0.53693    0.30523   1.00
C2       0.88684    0.06806    0.37119   1.00
C3       0.89500    0.06922    0.35121   1.00
H1       0.91854    0.04910    0.34577   1.00
C3       0.85064    0.09609    0.37877   1.00
H1       0.84346    0.09493    0.39269   1.00
C4       0.86972    0.09885    0.33825   1.00
C5       0.87869    0.09989    0.31536   1.00
H2       0.84260    0.05862    0.30961   1.00
H2       0.92177    0.10339    0.31230   1.00
H2       0.87752    0.13832    0.30973   1.00
C4       0.82418    0.12623    0.36634   1.00
C5       0.78157    0.15671    0.37515   1.00
H2       0.81048    0.20458    0.37742   1.00
H2       0.76102    0.13447    0.38769   1.00
H2       0.74647    0.14972    0.36568   1.00
C6       0.83253    0.12682    0.34577   1.00
C6       0.80328    0.15803    0.33227   1.00
C4       0.73938    0.11839    0.32369   1.00
C5       0.69634    0.04626    0.32992   1.00
H2       0.70451    0.01760    0.32101   1.00
H2       0.64943    0.03385    0.32924   1.00
H2       0.70769    0.04086    0.34362   1.00
C4       0.84271    0.22743    0.32828   1.00
C5       0.91383    0.27336    0.33705   1.00
H2       0.90996    0.29080    0.34999   1.00
H2       0.93970    0.31064    0.32797   1.00
H2       0.93638    0.24744    0.33880   1.00
C3       0.71506    0.14861    0.31040   1.00
H1       0.67172    0.12240    0.30485   1.00
C3       0.81444    0.25457    0.31391   1.00
H1       0.83975    0.30051    0.31058   1.00
C2       0.75297    0.21603    0.30523   1.00
C2       0.88684    0.81877    0.87119   1.00
C3       0.89500    0.82577    0.85121   1.00
H1       0.91854    0.86943    0.84577   1.00
C3       0.85064    0.75454    0.87877   1.00
H1       0.84346    0.74852    0.89269   1.00
C4       0.86972    0.77086    0.83825   1.00
C5       0.87869    0.77879    0.81536   1.00
H2       0.84260    0.78397    0.80961   1.00
H2       0.92177    0.81837    0.81230   1.00
H2       0.87752    0.73919    0.80973   1.00
C4       0.82418    0.69794    0.86634   1.00
C5       0.78157    0.62485    0.87515   1.00
H2       0.81048    0.60589    0.87742   1.00
H2       0.76102    0.62654    0.88769   1.00
H2       0.74647    0.59674    0.86568   1.00
C6       0.83253    0.70570    0.84577   1.00
C6       0.80328    0.64524    0.83227   1.00
C4       0.73938    0.62098    0.82369   1.00
C5       0.69634    0.65007    0.82992   1.00
H2       0.70451    0.68690    0.82101   1.00
H2       0.64943    0.61557    0.82924   1.00
H2       0.70769    0.66682    0.84362   1.00
C4       0.84271    0.61527    0.82828   1.00
C5       0.91383    0.64046    0.83705   1.00
H2       0.90996    0.61915    0.84999   1.00
H2       0.93970    0.62905    0.82797   1.00
H2       0.93638    0.68893    0.83880   1.00
C3       0.71506    0.56644    0.81040   1.00
H1       0.67172    0.54931    0.80485   1.00
C3       0.81444    0.55986    0.81391   1.00
H1       0.83975    0.53923    0.81058   1.00
C2       0.75297    0.53693    0.80523   1.00
C2       0.18123    0.06806    0.87119   1.00
C3       0.17423    0.06922    0.85121   1.00
H1       0.13057    0.04910    0.84577   1.00
C3       0.24546    0.09609    0.87877   1.00
H1       0.25148    0.09493    0.89269   1.00
C4       0.22914    0.09885    0.83825   1.00
C5       0.22121    0.09989    0.81536   1.00
H2       0.21603    0.05862    0.80961   1.00
H2       0.18163    0.10339    0.81230   1.00
H2       0.26081    0.13832    0.80973   1.00
C4       0.30206    0.12623    0.86634   1.00
C5       0.37515    0.15671    0.87515   1.00
H2       0.39411    0.20458    0.87742   1.00
H2       0.37346    0.13447    0.88769   1.00
H2       0.40326    0.14972    0.86568   1.00
C6       0.29430    0.12682    0.84577   1.00
C6       0.35476    0.15803    0.83227   1.00
C4       0.37902    0.11839    0.82369   1.00
C5       0.34993    0.04626    0.82992   1.00
H2       0.31310    0.01760    0.82101   1.00
H2       0.38443    0.03385    0.82924   1.00
H2       0.33318    0.04086    0.84362   1.00
C4       0.38473    0.22743    0.82828   1.00
C5       0.35954    0.27336    0.83705   1.00
H2       0.38085    0.29080    0.84999   1.00
H2       0.37095    0.31064    0.82797   1.00
H2       0.31107    0.24744    0.83880   1.00
C3       0.43356    0.14861    0.81040   1.00
H1       0.45069    0.12240    0.80485   1.00
C3       0.44014    0.25457    0.81391   1.00
H1       0.46077    0.30051    0.81058   1.00
C2       0.46307    0.21603    0.80523   1.00
C2       0.93194    0.11316    0.87119   1.00
C3       0.93078    0.10500    0.85121   1.00
H1       0.95090    0.08146    0.84577   1.00
C3       0.90391    0.14936    0.87877   1.00
H1       0.90507    0.15654    0.89269   1.00
C4       0.90115    0.13028    0.83825   1.00
C5       0.90011    0.12131    0.81536   1.00
H2       0.94138    0.15740    0.80961   1.00
H2       0.89661    0.07823    0.81230   1.00
H2       0.86168    0.12248    0.80973   1.00
C4       0.87377    0.17582    0.86634   1.00
C5       0.84329    0.21843    0.87515   1.00
H2       0.79542    0.18952    0.87742   1.00
H2       0.86553    0.23898    0.88769   1.00
H2       0.85028    0.25353    0.86568   1.00
C6       0.87318    0.16747    0.84577   1.00
C6       0.84197    0.19672    0.83227   1.00
C4       0.88161    0.26062    0.82369   1.00
C5       0.95374    0.30366    0.82992   1.00
H2       0.98240    0.29549    0.82101   1.00
H2       0.96615    0.35057    0.82924   1.00
H2       0.95914    0.29231    0.84362   1.00
C4       0.77257    0.15729    0.82828   1.00
C5       0.72664    0.08617    0.83705   1.00
H2       0.70920    0.09004    0.84999   1.00
H2       0.68936    0.06030    0.82797   1.00
H2       0.75256    0.06362    0.83880   1.00
C3       0.85139    0.28494    0.81040   1.00
H1       0.87760    0.32828    0.80485   1.00
C3       0.74543    0.18556    0.81391   1.00
H1       0.69949    0.16025    0.81058   1.00
C2       0.78397    0.24703    0.80523   1.00
C2       0.15211    0.55350    0.29547   1.00
C3       0.15911    0.56166    0.31545   1.00
H1       0.20277    0.58520    0.32089   1.00
C3       0.08788    0.51730    0.28789   1.00
H1       0.08186    0.51012    0.27397   1.00
C4       0.10420    0.53638    0.32841   1.00
C5       0.11213    0.54535    0.35130   1.00
H2       0.11731    0.50926    0.35705   1.00
H2       0.15171    0.58843    0.35436   1.00
H2       0.07253    0.54418    0.35693   1.00
C4       0.03128    0.49084    0.30032   1.00
C5       0.95819    0.44823    0.29151   1.00
H2       0.93923    0.47714    0.28924   1.00
H2       0.95988    0.42768    0.27897   1.00
H2       0.93008    0.41313    0.30098   1.00
C6       0.03904    0.49919    0.32089   1.00
C6       0.97858    0.46994    0.33439   1.00
C4       0.95432    0.40604    0.34297   1.00
C5       0.98341    0.36300    0.33674   1.00
H2       0.02024    0.37117    0.34565   1.00
H2       0.94891    0.31609    0.33742   1.00
H2       0.00016    0.37435    0.32304   1.00
C4       0.94861    0.50937    0.33838   1.00
C5       0.97380    0.58049    0.32961   1.00
H2       0.95249    0.57662    0.31667   1.00
H2       0.96239    0.60636    0.33869   1.00
H2       0.02227    0.60304    0.32786   1.00
C3       0.89978    0.38172    0.35626   1.00
H1       0.88265    0.33838    0.36181   1.00
C3       0.89320    0.48110    0.35275   1.00
H1       0.87257    0.50641    0.35608   1.00
C2       0.87027    0.41963    0.36143   1.00
C2       0.40140    0.84789    0.29547   1.00
C3       0.40256    0.84089    0.31545   1.00
H1       0.38244    0.79723    0.32089   1.00
C3       0.42943    0.91212    0.28789   1.00
H1       0.42827    0.91814    0.27397   1.00
C4       0.43219    0.89580    0.32841   1.00
C5       0.43323    0.88787    0.35130   1.00
H2       0.39196    0.88269    0.35705   1.00
H2       0.43673    0.84829    0.35436   1.00
H2       0.47166    0.92747    0.35693   1.00
C4       0.45957    0.96872    0.30032   1.00
C5       0.49005    0.04181    0.29151   1.00
H2       0.53792    0.06077    0.28924   1.00
H2       0.46781    0.04012    0.27897   1.00
H2       0.48306    0.06992    0.30098   1.00
C6       0.46016    0.96096    0.32089   1.00
C6       0.49137    0.02142    0.33439   1.00
C4       0.45173    0.04568    0.34297   1.00
C5       0.37960    0.01659    0.33674   1.00
H2       0.35094    0.97976    0.34565   1.00
H2       0.36719    0.05109    0.33742   1.00
H2       0.37420    0.99984    0.32304   1.00
C4       0.56077    0.05139    0.33838   1.00
C5       0.60670    0.02620    0.32961   1.00
H2       0.62414    0.04751    0.31667   1.00
H2       0.64398    0.03761    0.33869   1.00
H2       0.58078    0.97773    0.32786   1.00
C3       0.48195    0.10022    0.35626   1.00
H1       0.45574    0.11735    0.36181   1.00
C3       0.58791    0.10680    0.35275   1.00
H1       0.63385    0.12743    0.35608   1.00
C2       0.54937    0.12973    0.36143   1.00
C2       0.44650    0.59860    0.29547   1.00
C3       0.43834    0.59744    0.31545   1.00
H1       0.41480    0.61756    0.32089   1.00
C3       0.48270    0.57057    0.28789   1.00
H1       0.48988    0.57173    0.27397   1.00
C4       0.46362    0.56781    0.32841   1.00
C5       0.45465    0.56677    0.35130   1.00
H2       0.49074    0.60804    0.35705   1.00
H2       0.41157    0.56327    0.35436   1.00
H2       0.45582    0.52834    0.35693   1.00
C4       0.50916    0.54043    0.30032   1.00
C5       0.55177    0.50995    0.29151   1.00
H2       0.52286    0.46208    0.28924   1.00
H2       0.57232    0.53219    0.27897   1.00
H2       0.58687    0.51694    0.30098   1.00
C6       0.50081    0.53984    0.32089   1.00
C6       0.53006    0.50863    0.33439   1.00
C4       0.59396    0.54827    0.34297   1.00
C5       0.63700    0.62040    0.33674   1.00
H2       0.62883    0.64906    0.34565   1.00
H2       0.68391    0.63281    0.33742   1.00
H2       0.62565    0.62580    0.32304   1.00
C4       0.49063    0.43923    0.33838   1.00
C5       0.41951    0.39330    0.32961   1.00
H2       0.42338    0.37586    0.31667   1.00
H2       0.39364    0.35602    0.33869   1.00
H2       0.39696    0.41922    0.32786   1.00
C3       0.61828    0.51805    0.35626   1.00
H1       0.66162    0.54426    0.36181   1.00
C3       0.51890    0.41209    0.35275   1.00
H1       0.49359    0.36615    0.35608   1.00
C2       0.58037    0.45063    0.36143   1.00
C2       0.11316    0.18123    0.12881   1.00
C3       0.10500    0.17423    0.14879   1.00
H1       0.08146    0.13057    0.15423   1.00
C3       0.14936    0.24546    0.12123   1.00
H1       0.15654    0.25148    0.10731   1.00
C4       0.13028    0.22914    0.16175   1.00
C5       0.12131    0.22121    0.18464   1.00
H2       0.15740    0.21603    0.19039   1.00
H2       0.07823    0.18163    0.18770   1.00
H2       0.12248    0.26081    0.19027   1.00
C4       0.17582    0.30206    0.13366   1.00
C5       0.21843    0.37515    0.12485   1.00
H2       0.18952    0.39411    0.12258   1.00
H2       0.23898    0.37346    0.11231   1.00
H2       0.25353    0.40326    0.13432   1.00
C6       0.16747    0.29430    0.15423   1.00
C6       0.19672    0.35476    0.16773   1.00
C4       0.26062    0.37902    0.17631   1.00
C5       0.30366    0.34993    0.17008   1.00
H2       0.29549    0.31310    0.17899   1.00
H2       0.35057    0.38443    0.17076   1.00
H2       0.29231    0.33318    0.15638   1.00
C4       0.15729    0.38473    0.17172   1.00
C5       0.08617    0.35954    0.16295   1.00
H2       0.09004    0.38085    0.15001   1.00
H2       0.06030    0.37095    0.17203   1.00
H2       0.06362    0.31107    0.16120   1.00
C3       0.28494    0.43356    0.18960   1.00
H1       0.32828    0.45069    0.19515   1.00
C3       0.18556    0.44014    0.18609   1.00
H1       0.16025    0.46077    0.18942   1.00
C2       0.24703    0.46307    0.19477   1.00
C2       0.81877    0.93194    0.12881   1.00
C3       0.82577    0.93078    0.14879   1.00
H1       0.86943    0.95090    0.15423   1.00
C3       0.75454    0.90391    0.12123   1.00
H1       0.74852    0.90507    0.10731   1.00
C4       0.77086    0.90115    0.16175   1.00
C5       0.77879    0.90011    0.18464   1.00
H2       0.78397    0.94138    0.19039   1.00
H2       0.81837    0.89661    0.18770   1.00
H2       0.73919    0.86168    0.19027   1.00
C4       0.69794    0.87377    0.13366   1.00
C5       0.62485    0.84329    0.12485   1.00
H2       0.60589    0.79542    0.12258   1.00
H2       0.62654    0.86553    0.11231   1.00
H2       0.59674    0.85028    0.13432   1.00
C6       0.70570    0.87318    0.15423   1.00
C6       0.64524    0.84197    0.16773   1.00
C4       0.62098    0.88161    0.17631   1.00
C5       0.65007    0.95374    0.17008   1.00
H2       0.68690    0.98240    0.17899   1.00
H2       0.61557    0.96615    0.17076   1.00
H2       0.66682    0.95914    0.15638   1.00
C4       0.61527    0.77257    0.17172   1.00
C5       0.64046    0.72664    0.16295   1.00
H2       0.61915    0.70920    0.15001   1.00
H2       0.62905    0.68936    0.17203   1.00
H2       0.68893    0.75256    0.16120   1.00
C3       0.56644    0.85139    0.18960   1.00
H1       0.54931    0.87760    0.19515   1.00
C3       0.55986    0.74543    0.18609   1.00
H1       0.53923    0.69949    0.18942   1.00
C2       0.53693    0.78397    0.19477   1.00
C2       0.06806    0.88684    0.12881   1.00
C3       0.06922    0.89500    0.14879   1.00
H1       0.04910    0.91854    0.15423   1.00
C3       0.09609    0.85064    0.12123   1.00
H1       0.09493    0.84346    0.10731   1.00
C4       0.09885    0.86972    0.16175   1.00
C5       0.09989    0.87869    0.18464   1.00
H2       0.05862    0.84260    0.19039   1.00
H2       0.10339    0.92177    0.18770   1.00
H2       0.13832    0.87752    0.19027   1.00
C4       0.12623    0.82418    0.13366   1.00
C5       0.15671    0.78157    0.12485   1.00
H2       0.20458    0.81048    0.12258   1.00
H2       0.13447    0.76102    0.11231   1.00
H2       0.14972    0.74647    0.13432   1.00
C6       0.12682    0.83253    0.15423   1.00
C6       0.15803    0.80328    0.16773   1.00
C4       0.11839    0.73938    0.17631   1.00
C5       0.04626    0.69634    0.17008   1.00
H2       0.01760    0.70451    0.17899   1.00
H2       0.03385    0.64943    0.17076   1.00
H2       0.04086    0.70769    0.15638   1.00
C4       0.22743    0.84271    0.17172   1.00
C5       0.27336    0.91383    0.16295   1.00
H2       0.29080    0.90996    0.15001   1.00
H2       0.31064    0.93970    0.17203   1.00
H2       0.24744    0.93638    0.16120   1.00
C3       0.14861    0.71506    0.18960   1.00
H1       0.12240    0.67172    0.19515   1.00
C3       0.25457    0.81444    0.18609   1.00
H1       0.30051    0.83975    0.18942   1.00
C2       0.21603    0.75297    0.19477   1.00
C2       0.84789    0.44650    0.70453   1.00
C3       0.84089    0.43834    0.68455   1.00
H1       0.79723    0.41480    0.67911   1.00
C3       0.91212    0.48270    0.71211   1.00
H1       0.91814    0.48988    0.72603   1.00
C4       0.89580    0.46362    0.67159   1.00
C5       0.88787    0.45465    0.64870   1.00
H2       0.88269    0.49074    0.64295   1.00
H2       0.84829    0.41157    0.64564   1.00
H2       0.92747    0.45582    0.64307   1.00
C4       0.96872    0.50916    0.69968   1.00
C5       0.04181    0.55177    0.70849   1.00
H2       0.06077    0.52286    0.71076   1.00
H2       0.04012    0.57232    0.72103   1.00
H2       0.06992    0.58687    0.69902   1.00
C6       0.96096    0.50081    0.67911   1.00
C6       0.02142    0.53006    0.66561   1.00
C4       0.04568    0.59396    0.65703   1.00
C5       0.01659    0.63700    0.66326   1.00
H2       0.97976    0.62883    0.65435   1.00
H2       0.05109    0.68391    0.66258   1.00
H2       0.99984    0.62565    0.67696   1.00
C4       0.05139    0.49063    0.66162   1.00
C5       0.02620    0.41951    0.67039   1.00
H2       0.04751    0.42338    0.68333   1.00
H2       0.03761    0.39364    0.66131   1.00
H2       0.97773    0.39696    0.67214   1.00
C3       0.10022    0.61828    0.64374   1.00
H1       0.11735    0.66162    0.63819   1.00
C3       0.10680    0.51890    0.64725   1.00
H1       0.12743    0.49359    0.64392   1.00
C2       0.12973    0.58037    0.63857   1.00
C2       0.59860    0.15211    0.70453   1.00
C3       0.59744    0.15911    0.68455   1.00
H1       0.61756    0.20277    0.67911   1.00
C3       0.57057    0.08788    0.71211   1.00
H1       0.57173    0.08186    0.72603   1.00
C4       0.56781    0.10420    0.67159   1.00
C5       0.56677    0.11213    0.64870   1.00
H2       0.60804    0.11731    0.64295   1.00
H2       0.56327    0.15171    0.64564   1.00
H2       0.52834    0.07253    0.64307   1.00
C4       0.54043    0.03128    0.69968   1.00
C5       0.50995    0.95819    0.70849   1.00
H2       0.46208    0.93923    0.71076   1.00
H2       0.53219    0.95988    0.72103   1.00
H2       0.51694    0.93008    0.69902   1.00
C6       0.53984    0.03904    0.67911   1.00
C6       0.50863    0.97858    0.66561   1.00
C4       0.54827    0.95432    0.65703   1.00
C5       0.62040    0.98341    0.66326   1.00
H2       0.64906    0.02024    0.65435   1.00
H2       0.63281    0.94891    0.66258   1.00
H2       0.62580    0.00016    0.67696   1.00
C4       0.43923    0.94861    0.66162   1.00
C5       0.39330    0.97380    0.67039   1.00
H2       0.37586    0.95249    0.68333   1.00
H2       0.35602    0.96239    0.66131   1.00
H2       0.41922    0.02227    0.67214   1.00
C3       0.51805    0.89978    0.64374   1.00
H1       0.54426    0.88265    0.63819   1.00
C3       0.41209    0.89320    0.64725   1.00
H1       0.36615    0.87257    0.64392   1.00
C2       0.45063    0.87027    0.63857   1.00
C2       0.55350    0.40140    0.70453   1.00
C3       0.56166    0.40256    0.68455   1.00
H1       0.58520    0.38244    0.67911   1.00
C3       0.51730    0.42943    0.71211   1.00
H1       0.51012    0.42827    0.72603   1.00
C4       0.53638    0.43219    0.67159   1.00
C5       0.54535    0.43323    0.64870   1.00
H2       0.50926    0.39196    0.64295   1.00
H2       0.58843    0.43673    0.64564   1.00
H2       0.54418    0.47166    0.64307   1.00
C4       0.49084    0.45957    0.69968   1.00
C5       0.44823    0.49005    0.70849   1.00
H2       0.47714    0.53792    0.71076   1.00
H2       0.42768    0.46781    0.72103   1.00
H2       0.41313    0.48306    0.69902   1.00
C6       0.49919    0.46016    0.67911   1.00
C6       0.46994    0.49137    0.66561   1.00
C4       0.40604    0.45173    0.65703   1.00
C5       0.36300    0.37960    0.66326   1.00
H2       0.37117    0.35094    0.65435   1.00
H2       0.31609    0.36719    0.66258   1.00
H2       0.37435    0.37420    0.67696   1.00
C4       0.50937    0.56077    0.66162   1.00
C5       0.58049    0.60670    0.67039   1.00
H2       0.57662    0.62414    0.68333   1.00
H2       0.60636    0.64398    0.66131   1.00
H2       0.60304    0.58078    0.67214   1.00
C3       0.38172    0.48195    0.64374   1.00
H1       0.33838    0.45574    0.63819   1.00
C3       0.48110    0.58791    0.64725   1.00
H1       0.50641    0.63385    0.64392   1.00
C2       0.41963    0.54937    0.63857   1.00
C2       0.55350    0.15211    0.20453   1.00
C3       0.56166    0.15911    0.18455   1.00
H1       0.58520    0.20277    0.17911   1.00
C3       0.51730    0.08788    0.21211   1.00
H1       0.51012    0.08186    0.22603   1.00
C4       0.53638    0.10420    0.17159   1.00
C5       0.54535    0.11213    0.14870   1.00
H2       0.50926    0.11731    0.14295   1.00
H2       0.58843    0.15171    0.14564   1.00
H2       0.54418    0.07253    0.14307   1.00
C4       0.49084    0.03128    0.19968   1.00
C5       0.44823    0.95819    0.20849   1.00
H2       0.47714    0.93923    0.21076   1.00
H2       0.42768    0.95988    0.22103   1.00
H2       0.41313    0.93008    0.19902   1.00
C6       0.49919    0.03904    0.17911   1.00
C6       0.46994    0.97858    0.16561   1.00
C4       0.40604    0.95432    0.15703   1.00
C5       0.36300    0.98341    0.16326   1.00
H2       0.37117    0.02024    0.15435   1.00
H2       0.31609    0.94891    0.16258   1.00
H2       0.37435    0.00016    0.17696   1.00
C4       0.50937    0.94861    0.16162   1.00
C5       0.58049    0.97380    0.17039   1.00
H2       0.57662    0.95249    0.18333   1.00
H2       0.60636    0.96239    0.16131   1.00
H2       0.60304    0.02227    0.17214   1.00
C3       0.38172    0.89978    0.14374   1.00
H1       0.33838    0.88265    0.13819   1.00
C3       0.48110    0.89320    0.14725   1.00
H1       0.50641    0.87257    0.14392   1.00
C2       0.41963    0.87027    0.13857   1.00
C2       0.84789    0.40140    0.20453   1.00
C3       0.84089    0.40256    0.18455   1.00
H1       0.79723    0.38244    0.17911   1.00
C3       0.91212    0.42943    0.21211   1.00
H1       0.91814    0.42827    0.22603   1.00
C4       0.89580    0.43219    0.17159   1.00
C5       0.88787    0.43323    0.14870   1.00
H2       0.88269    0.39196    0.14295   1.00
H2       0.84829    0.43673    0.14564   1.00
H2       0.92747    0.47166    0.14307   1.00
C4       0.96872    0.45957    0.19968   1.00
C5       0.04181    0.49005    0.20849   1.00
H2       0.06077    0.53792    0.21076   1.00
H2       0.04012    0.46781    0.22103   1.00
H2       0.06992    0.48306    0.19902   1.00
C6       0.96096    0.46016    0.17911   1.00
C6       0.02142    0.49137    0.16561   1.00
C4       0.04568    0.45173    0.15703   1.00
C5       0.01659    0.37960    0.16326   1.00
H2       0.97976    0.35094    0.15435   1.00
H2       0.05109    0.36719    0.16258   1.00
H2       0.99984    0.37420    0.17696   1.00
C4       0.05139    0.56077    0.16162   1.00
C5       0.02620    0.60670    0.17039   1.00
H2       0.04751    0.62414    0.18333   1.00
H2       0.03761    0.64398    0.16131   1.00
H2       0.97773    0.58078    0.17214   1.00
C3       0.10022    0.48195    0.14374   1.00
H1       0.11735    0.45574    0.13819   1.00
C3       0.10680    0.58791    0.14725   1.00
H1       0.12743    0.63385    0.14392   1.00
C2       0.12973    0.54937    0.13857   1.00
C2       0.59860    0.44650    0.20453   1.00
C3       0.59744    0.43834    0.18455   1.00
H1       0.61756    0.41480    0.17911   1.00
C3       0.57057    0.48270    0.21211   1.00
H1       0.57173    0.48988    0.22603   1.00
C4       0.56781    0.46362    0.17159   1.00
C5       0.56677    0.45465    0.14870   1.00
H2       0.60804    0.49074    0.14295   1.00
H2       0.56327    0.41157    0.14564   1.00
H2       0.52834    0.45582    0.14307   1.00
C4       0.54043    0.50916    0.19968   1.00
C5       0.50995    0.55177    0.20849   1.00
H2       0.46208    0.52286    0.21076   1.00
H2       0.53219    0.57232    0.22103   1.00
H2       0.51694    0.58687    0.19902   1.00
C6       0.53984    0.50081    0.17911   1.00
C6       0.50863    0.53006    0.16561   1.00
C4       0.54827    0.59396    0.15703   1.00
C5       0.62040    0.63700    0.16326   1.00
H2       0.64906    0.62883    0.15435   1.00
H2       0.63281    0.68391    0.16258   1.00
H2       0.62580    0.62565    0.17696   1.00
C4       0.43923    0.49063    0.16162   1.00
C5       0.39330    0.41951    0.17039   1.00
H2       0.37586    0.42338    0.18333   1.00
H2       0.35602    0.39364    0.16131   1.00
H2       0.41922    0.39696    0.17214   1.00
C3       0.51805    0.61828    0.14374   1.00
H1       0.54426    0.66162    0.13819   1.00
C3       0.41209    0.51890    0.14725   1.00
H1       0.36615    0.49359    0.14392   1.00
C2       0.45063    0.58037    0.13857   1.00
C2       0.81877    0.88684    0.62881   1.00
C3       0.82577    0.89500    0.64879   1.00
H1       0.86943    0.91854    0.65423   1.00
C3       0.75454    0.85064    0.62123   1.00
H1       0.74852    0.84346    0.60731   1.00
C4       0.77086    0.86972    0.66175   1.00
C5       0.77879    0.87869    0.68464   1.00
H2       0.78397    0.84260    0.69039   1.00
H2       0.81837    0.92177    0.68770   1.00
H2       0.73919    0.87752    0.69027   1.00
C4       0.69794    0.82418    0.63366   1.00
C5       0.62485    0.78157    0.62485   1.00
H2       0.60589    0.81048    0.62258   1.00
H2       0.62654    0.76102    0.61231   1.00
H2       0.59674    0.74647    0.63432   1.00
C6       0.70570    0.83253    0.65423   1.00
C6       0.64524    0.80328    0.66773   1.00
C4       0.62098    0.73938    0.67631   1.00
C5       0.65007    0.69634    0.67008   1.00
H2       0.68690    0.70451    0.67899   1.00
H2       0.61557    0.64943    0.67076   1.00
H2       0.66682    0.70769    0.65638   1.00
C4       0.61527    0.84271    0.67172   1.00
C5       0.64046    0.91383    0.66295   1.00
H2       0.61915    0.90996    0.65001   1.00
H2       0.62905    0.93970    0.67203   1.00
H2       0.68893    0.93638    0.66120   1.00
C3       0.56644    0.71506    0.68960   1.00
H1       0.54931    0.67172    0.69515   1.00
C3       0.55986    0.81444    0.68609   1.00
H1       0.53923    0.83975    0.68942   1.00
C2       0.53693    0.75297    0.69477   1.00
C2       0.06806    0.18123    0.62881   1.00
C3       0.06922    0.17423    0.64879   1.00
H1       0.04910    0.13057    0.65423   1.00
C3       0.09609    0.24546    0.62123   1.00
H1       0.09493    0.25148    0.60731   1.00
C4       0.09885    0.22914    0.66175   1.00
C5       0.09989    0.22121    0.68464   1.00
H2       0.05862    0.21603    0.69039   1.00
H2       0.10339    0.18163    0.68770   1.00
H2       0.13832    0.26081    0.69027   1.00
C4       0.12623    0.30206    0.63366   1.00
C5       0.15671    0.37515    0.62485   1.00
H2       0.20458    0.39411    0.62258   1.00
H2       0.13447    0.37346    0.61231   1.00
H2       0.14972    0.40326    0.63432   1.00
C6       0.12682    0.29430    0.65423   1.00
C6       0.15803    0.35476    0.66773   1.00
C4       0.11839    0.37902    0.67631   1.00
C5       0.04626    0.34993    0.67008   1.00
H2       0.01760    0.31310    0.67899   1.00
H2       0.03385    0.38443    0.67076   1.00
H2       0.04086    0.33318    0.65638   1.00
C4       0.22743    0.38473    0.67172   1.00
C5       0.27336    0.35954    0.66295   1.00
H2       0.29080    0.38085    0.65001   1.00
H2       0.31064    0.37095    0.67203   1.00
H2       0.24744    0.31107    0.66120   1.00
C3       0.14861    0.43356    0.68960   1.00
H1       0.12240    0.45069    0.69515   1.00
C3       0.25457    0.44014    0.68609   1.00
H1       0.30051    0.46077    0.68942   1.00
C2       0.21603    0.46307    0.69477   1.00
C2       0.11316    0.93194    0.62881   1.00
C3       0.10500    0.93078    0.64879   1.00
H1       0.08146    0.95090    0.65423   1.00
C3       0.14936    0.90391    0.62123   1.00
H1       0.15654    0.90507    0.60731   1.00
C4       0.13028    0.90115    0.66175   1.00
C5       0.12131    0.90011    0.68464   1.00
H2       0.15740    0.94138    0.69039   1.00
H2       0.07823    0.89661    0.68770   1.00
H2       0.12248    0.86168    0.69027   1.00
C4       0.17582    0.87377    0.63366   1.00
C5       0.21843    0.84329    0.62485   1.00
H2       0.18952    0.79542    0.62258   1.00
H2       0.23898    0.86553    0.61231   1.00
H2       0.25353    0.85028    0.63432   1.00
C6       0.16747    0.87318    0.65423   1.00
C6       0.19672    0.84197    0.66773   1.00
C4       0.26062    0.88161    0.67631   1.00
C5       0.30366    0.95374    0.67008   1.00
H2       0.29549    0.98240    0.67899   1.00
H2       0.35057    0.96615    0.67076   1.00
H2       0.29231    0.95914    0.65638   1.00
C4       0.15729    0.77257    0.67172   1.00
C5       0.08617    0.72664    0.66295   1.00
H2       0.09004    0.70920    0.65001   1.00
H2       0.06030    0.68936    0.67203   1.00
H2       0.06362    0.75256    0.66120   1.00
C3       0.28494    0.85139    0.68960   1.00
H1       0.32828    0.87760    0.69515   1.00
C3       0.18556    0.74543    0.68609   1.00
H1       0.16025    0.69949    0.68942   1.00
C2       0.24703    0.78397    0.69477   1.00
