data_IRMOF10_interpen_symm_ligand2cp_label_j.

_audit_creation_method             'generated by an auxiliary program of Tobunporous'

_symmetry_space_group_name_H-M     'P 1'
_symmetry_Int_Tables_number        1
_symmetry_cell_setting             triclinic

_cell_length_a                    22.6523
_cell_length_b                    22.6523
_cell_length_c                    65.9502
_cell_angle_alpha                 90.0000
_cell_angle_beta                  90.0000
_cell_angle_gamma                 120.0000

loop_
_atom_site_label
_atom_site_fract_x
_atom_site_fract_y
_atom_site_fract_z
_atom_site_occupancy
O1       0.00000    0.00000    0.57470   1.00
Zn      0.00000    0.00000    0.54560   1.00
Zn      0.94843    0.04287    0.58357   1.00
Zn      0.09443    0.05157    0.58357   1.00
Zn      0.95713    0.90557    0.58357   1.00
O2       0.93860    0.02610    0.53560   1.00
O2       0.08750    0.06140    0.53560   1.00
O2       0.97390    0.91250    0.53560   1.00
O2       0.91300    0.07160    0.56150   1.00
O2       0.00463    0.12027    0.60077   1.00
O2       0.87413    0.98077    0.60037   1.00
O2       0.15860    0.08700    0.56150   1.00
O2       0.10663    0.12587    0.60037   1.00
O2       0.11563    0.99537    0.60077   1.00
O2       0.92840    0.84140    0.56150   1.00
O2       0.87973    0.88437    0.60077   1.00
O2       0.01923    0.89337    0.60037   1.00
C1       0.91390    0.06020    0.54330   1.00
C1       0.14630    0.08610    0.54330   1.00
C1       0.93980    0.85370    0.54330   1.00
C1       0.06663    0.14397    0.60637   1.00
C1       0.85603    0.92267    0.60637   1.00
C1       0.07733    0.93337    0.60637   1.00
O1       0.00000    0.00000    0.92530   1.00
Zn      0.00000    0.00000    0.95440   1.00
Zn      0.04287    0.94843    0.91643   1.00
Zn      0.05157    0.09443    0.91643   1.00
Zn      0.90557    0.95713    0.91643   1.00
O2       0.02610    0.93860    0.96440   1.00
O2       0.06140    0.08750    0.96440   1.00
O2       0.91250    0.97390    0.96440   1.00
O2       0.07160    0.91300    0.93850   1.00
O2       0.12027    0.00463    0.89923   1.00
O2       0.98077    0.87413    0.89963   1.00
O2       0.08700    0.15860    0.93850   1.00
O2       0.12587    0.10663    0.89963   1.00
O2       0.99537    0.11563    0.89923   1.00
O2       0.84140    0.92840    0.93850   1.00
O2       0.88437    0.87973    0.89923   1.00
O2       0.89337    0.01923    0.89963   1.00
C1       0.06020    0.91390    0.95670   1.00
C1       0.08610    0.14630    0.95670   1.00
C1       0.85370    0.93980    0.95670   1.00
C1       0.14397    0.06663    0.89363   1.00
C1       0.92267    0.85603    0.89363   1.00
C1       0.93337    0.07733    0.89363   1.00
O1       0.00000    0.00000    0.42530   1.00
Zn      0.00000    0.00000    0.45440   1.00
Zn      0.05157    0.95713    0.41643   1.00
Zn      0.90557    0.94843    0.41643   1.00
Zn      0.04287    0.09443    0.41643   1.00
O2       0.06140    0.97390    0.46440   1.00
O2       0.91250    0.93860    0.46440   1.00
O2       0.02610    0.08750    0.46440   1.00
O2       0.08700    0.92840    0.43850   1.00
O2       0.99537    0.87973    0.39923   1.00
O2       0.12587    0.01923    0.39963   1.00
O2       0.84140    0.91300    0.43850   1.00
O2       0.89337    0.87413    0.39963   1.00
O2       0.88437    0.00463    0.39923   1.00
O2       0.07160    0.15860    0.43850   1.00
O2       0.12027    0.11563    0.39923   1.00
O2       0.98077    0.10663    0.39963   1.00
C1       0.08610    0.93980    0.45670   1.00
C1       0.85370    0.91390    0.45670   1.00
C1       0.06020    0.14630    0.45670   1.00
C1       0.93337    0.85603    0.39363   1.00
C1       0.14397    0.07733    0.39363   1.00
C1       0.92267    0.06663    0.39363   1.00
O1       0.00000    0.00000    0.07470   1.00
Zn      0.00000    0.00000    0.04560   1.00
Zn      0.95713    0.05157    0.08357   1.00
Zn      0.94843    0.90557    0.08357   1.00
Zn      0.09443    0.04287    0.08357   1.00
O2       0.97390    0.06140    0.03560   1.00
O2       0.93860    0.91250    0.03560   1.00
O2       0.08750    0.02610    0.03560   1.00
O2       0.92840    0.08700    0.06150   1.00
O2       0.87973    0.99537    0.10077   1.00
O2       0.01923    0.12587    0.10037   1.00
O2       0.91300    0.84140    0.06150   1.00
O2       0.87413    0.89337    0.10037   1.00
O2       0.00463    0.88437    0.10077   1.00
O2       0.15860    0.07160    0.06150   1.00
O2       0.11563    0.12027    0.10077   1.00
O2       0.10663    0.98077    0.10037   1.00
C1       0.93980    0.08610    0.04330   1.00
C1       0.91390    0.85370    0.04330   1.00
C1       0.14630    0.06020    0.04330   1.00
C1       0.85603    0.93337    0.10637   1.00
C1       0.07733    0.14397    0.10637   1.00
C1       0.06663    0.92267    0.10637   1.00
O1       0.66667    0.33333    0.90803   1.00
Zn      0.66667    0.33333    0.87893   1.00
Zn      0.61510    0.37620    0.91690   1.00
Zn      0.76110    0.38490    0.91690   1.00
Zn      0.62380    0.23890    0.91690   1.00
O2       0.60527    0.35943    0.86893   1.00
O2       0.75417    0.39473    0.86893   1.00
O2       0.64057    0.24583    0.86893   1.00
O2       0.57967    0.40493    0.89483   1.00
O2       0.67130    0.45360    0.93410   1.00
O2       0.54080    0.31410    0.93370   1.00
O2       0.82527    0.42033    0.89483   1.00
O2       0.77330    0.45920    0.93370   1.00
O2       0.78230    0.32870    0.93410   1.00
O2       0.59507    0.17473    0.89483   1.00
O2       0.54640    0.21770    0.93410   1.00
O2       0.68590    0.22670    0.93370   1.00
C1       0.58057    0.39353    0.87663   1.00
C1       0.81297    0.41943    0.87663   1.00
C1       0.60647    0.18703    0.87663   1.00
C1       0.73330    0.47730    0.93970   1.00
C1       0.52270    0.25600    0.93970   1.00
C1       0.74400    0.26670    0.93970   1.00
O1       0.66667    0.33333    0.25863   1.00
Zn      0.66667    0.33333    0.28773   1.00
Zn      0.70953    0.28177    0.24977   1.00
Zn      0.71823    0.42777    0.24977   1.00
Zn      0.57223    0.29047    0.24977   1.00
O2       0.69277    0.27193    0.29773   1.00
O2       0.72807    0.42083    0.29773   1.00
O2       0.57917    0.30723    0.29773   1.00
O2       0.73827    0.24633    0.27183   1.00
O2       0.78693    0.33797    0.23257   1.00
O2       0.64743    0.20747    0.23297   1.00
O2       0.75367    0.49193    0.27183   1.00
O2       0.79253    0.43997    0.23297   1.00
O2       0.66203    0.44897    0.23257   1.00
O2       0.50807    0.26173    0.27183   1.00
O2       0.55103    0.21307    0.23257   1.00
O2       0.56003    0.35257    0.23297   1.00
C1       0.72687    0.24723    0.29003   1.00
C1       0.75277    0.47963    0.29003   1.00
C1       0.52037    0.27313    0.29003   1.00
C1       0.81063    0.39997    0.22697   1.00
C1       0.58933    0.18937    0.22697   1.00
C1       0.60003    0.41067    0.22697   1.00
O1       0.66667    0.33333    0.75863   1.00
Zn      0.66667    0.33333    0.78773   1.00
Zn      0.71823    0.29047    0.74977   1.00
Zn      0.57223    0.28177    0.74977   1.00
Zn      0.70953    0.42777    0.74977   1.00
O2       0.72807    0.30723    0.79773   1.00
O2       0.57917    0.27193    0.79773   1.00
O2       0.69277    0.42083    0.79773   1.00
O2       0.75367    0.26173    0.77183   1.00
O2       0.66203    0.21307    0.73257   1.00
O2       0.79253    0.35257    0.73297   1.00
O2       0.50807    0.24633    0.77183   1.00
O2       0.56003    0.20747    0.73297   1.00
O2       0.55103    0.33797    0.73257   1.00
O2       0.73827    0.49193    0.77183   1.00
O2       0.78693    0.44897    0.73257   1.00
O2       0.64743    0.43997    0.73297   1.00
C1       0.75277    0.27313    0.79003   1.00
C1       0.52037    0.24723    0.79003   1.00
C1       0.72687    0.47963    0.79003   1.00
C1       0.60003    0.18937    0.72697   1.00
C1       0.81063    0.41067    0.72697   1.00
C1       0.58933    0.39997    0.72697   1.00
O1       0.66667    0.33333    0.40803   1.00
Zn      0.66667    0.33333    0.37893   1.00
Zn      0.62380    0.38490    0.41690   1.00
Zn      0.61510    0.23890    0.41690   1.00
Zn      0.76110    0.37620    0.41690   1.00
O2       0.64057    0.39473    0.36893   1.00
O2       0.60527    0.24583    0.36893   1.00
O2       0.75417    0.35943    0.36893   1.00
O2       0.59507    0.42033    0.39483   1.00
O2       0.54640    0.32870    0.43410   1.00
O2       0.68590    0.45920    0.43370   1.00
O2       0.57967    0.17473    0.39483   1.00
O2       0.54080    0.22670    0.43370   1.00
O2       0.67130    0.21770    0.43410   1.00
O2       0.82527    0.40493    0.39483   1.00
O2       0.78230    0.45360    0.43410   1.00
O2       0.77330    0.31410    0.43370   1.00
C1       0.60647    0.41943    0.37663   1.00
C1       0.58057    0.18703    0.37663   1.00
C1       0.81297    0.39353    0.37663   1.00
C1       0.52270    0.26670    0.43970   1.00
C1       0.74400    0.47730    0.43970   1.00
C1       0.73330    0.25600    0.43970   1.00
O1       0.33333    0.66667    0.24137   1.00
Zn      0.33333    0.66667    0.21227   1.00
Zn      0.28177    0.70953    0.25023   1.00
Zn      0.42777    0.71823    0.25023   1.00
Zn      0.29047    0.57223    0.25023   1.00
O2       0.27193    0.69277    0.20227   1.00
O2       0.42083    0.72807    0.20227   1.00
O2       0.30723    0.57917    0.20227   1.00
O2       0.24633    0.73827    0.22817   1.00
O2       0.33797    0.78693    0.26743   1.00
O2       0.20747    0.64743    0.26703   1.00
O2       0.49193    0.75367    0.22817   1.00
O2       0.43997    0.79253    0.26703   1.00
O2       0.44897    0.66203    0.26743   1.00
O2       0.26173    0.50807    0.22817   1.00
O2       0.21307    0.55103    0.26743   1.00
O2       0.35257    0.56003    0.26703   1.00
C1       0.24723    0.72687    0.20997   1.00
C1       0.47963    0.75277    0.20997   1.00
C1       0.27313    0.52037    0.20997   1.00
C1       0.39997    0.81063    0.27303   1.00
C1       0.18937    0.58933    0.27303   1.00
C1       0.41067    0.60003    0.27303   1.00
O1       0.33333    0.66667    0.59197   1.00
Zn      0.33333    0.66667    0.62107   1.00
Zn      0.37620    0.61510    0.58310   1.00
Zn      0.38490    0.76110    0.58310   1.00
Zn      0.23890    0.62380    0.58310   1.00
O2       0.35943    0.60527    0.63107   1.00
O2       0.39473    0.75417    0.63107   1.00
O2       0.24583    0.64057    0.63107   1.00
O2       0.40493    0.57967    0.60517   1.00
O2       0.45360    0.67130    0.56590   1.00
O2       0.31410    0.54080    0.56630   1.00
O2       0.42033    0.82527    0.60517   1.00
O2       0.45920    0.77330    0.56630   1.00
O2       0.32870    0.78230    0.56590   1.00
O2       0.17473    0.59507    0.60517   1.00
O2       0.21770    0.54640    0.56590   1.00
O2       0.22670    0.68590    0.56630   1.00
C1       0.39353    0.58057    0.62337   1.00
C1       0.41943    0.81297    0.62337   1.00
C1       0.18703    0.60647    0.62337   1.00
C1       0.47730    0.73330    0.56030   1.00
C1       0.25600    0.52270    0.56030   1.00
C1       0.26670    0.74400    0.56030   1.00
O1       0.33333    0.66667    0.09197   1.00
Zn      0.33333    0.66667    0.12107   1.00
Zn      0.38490    0.62380    0.08310   1.00
Zn      0.23890    0.61510    0.08310   1.00
Zn      0.37620    0.76110    0.08310   1.00
O2       0.39473    0.64057    0.13107   1.00
O2       0.24583    0.60527    0.13107   1.00
O2       0.35943    0.75417    0.13107   1.00
O2       0.42033    0.59507    0.10517   1.00
O2       0.32870    0.54640    0.06590   1.00
O2       0.45920    0.68590    0.06630   1.00
O2       0.17473    0.57967    0.10517   1.00
O2       0.22670    0.54080    0.06630   1.00
O2       0.21770    0.67130    0.06590   1.00
O2       0.40493    0.82527    0.10517   1.00
O2       0.45360    0.78230    0.06590   1.00
O2       0.31410    0.77330    0.06630   1.00
C1       0.41943    0.60647    0.12337   1.00
C1       0.18703    0.58057    0.12337   1.00
C1       0.39353    0.81297    0.12337   1.00
C1       0.26670    0.52270    0.06030   1.00
C1       0.47730    0.74400    0.06030   1.00
C1       0.25600    0.73330    0.06030   1.00
O1       0.33333    0.66667    0.74137   1.00
Zn      0.33333    0.66667    0.71227   1.00
Zn      0.29047    0.71823    0.75023   1.00
Zn      0.28177    0.57223    0.75023   1.00
Zn      0.42777    0.70953    0.75023   1.00
O2       0.30723    0.72807    0.70227   1.00
O2       0.27193    0.57917    0.70227   1.00
O2       0.42083    0.69277    0.70227   1.00
O2       0.26173    0.75367    0.72817   1.00
O2       0.21307    0.66203    0.76743   1.00
O2       0.35257    0.79253    0.76703   1.00
O2       0.24633    0.50807    0.72817   1.00
O2       0.20747    0.56003    0.76703   1.00
O2       0.33797    0.55103    0.76743   1.00
O2       0.49193    0.73827    0.72817   1.00
O2       0.44897    0.78693    0.76743   1.00
O2       0.43997    0.64743    0.76703   1.00
C1       0.27313    0.75277    0.70997   1.00
C1       0.24723    0.52037    0.70997   1.00
C1       0.47963    0.72687    0.70997   1.00
C1       0.18937    0.60003    0.77303   1.00
C1       0.41067    0.81063    0.77303   1.00
C1       0.39997    0.58933    0.77303   1.00
C2       0.78834    0.54210    0.45284   1.00
C3       0.78394    0.59825    0.45121   1.00
H1       0.76288    0.60370    0.43984   1.00
C3       0.81762    0.53434    0.46986   1.00
H1       0.82032    0.49495    0.47145   1.00
C3a      0.80913    0.64859    0.46574   1.00
H1       0.80587    0.68780    0.46465   1.00
C3b      0.84346    0.58341    0.48486   1.00
H1       0.86259    0.57730    0.49659   1.00
C6       0.83832    0.64090    0.48309   1.00
C6       0.86487    0.69334    0.49929   1.00
C3c      0.82223    0.69184    0.51461   1.00
H1       0.77817    0.65498    0.51568   1.00
C3d      0.93295    0.74420    0.49823   1.00
H1       0.96277    0.74713    0.48807   1.00
C3       0.84794    0.74345    0.52893   1.00
H1       0.81976    0.74203    0.53943   1.00
C3       0.95523    0.79690    0.51341   1.00
H1       0.00011    0.83244    0.51301   1.00
C2       0.91370    0.79640    0.52810   1.00
C2       0.45790    0.24624    0.45284   1.00
C3       0.40175    0.18569    0.45121   1.00
H1       0.39630    0.15918    0.43984   1.00
C3       0.46566    0.28328    0.46986   1.00
H1       0.50505    0.32537    0.47145   1.00
C3a      0.35141    0.16054    0.46574   1.00
H1       0.31220    0.11808    0.46465   1.00
C3b      0.41659    0.26005    0.48486   1.00
H1       0.42270    0.28529    0.49659   1.00
C6       0.35910    0.19742    0.48309   1.00
C6       0.30666    0.17153    0.49929   1.00
C3c      0.30816    0.13039    0.51461   1.00
H1       0.34502    0.12319    0.51568   1.00
C3d      0.25580    0.18875    0.49823   1.00
H1       0.25287    0.21564    0.48807   1.00
C3       0.25655    0.10449    0.52893   1.00
H1       0.25797    0.07773    0.53943   1.00
C3       0.20310    0.15833    0.51341   1.00
H1       0.16756    0.16767    0.51301   1.00
C2       0.20360    0.11730    0.52810   1.00
C2       0.75376    0.21166    0.45284   1.00
C3       0.81431    0.21606    0.45121   1.00
H1       0.84082    0.23712    0.43984   1.00
C3       0.71672    0.18238    0.46986   1.00
H1       0.67463    0.17968    0.47145   1.00
C3a      0.83946    0.19087    0.46574   1.00
H1       0.88192    0.19413    0.46465   1.00
C3b      0.73995    0.15654    0.48486   1.00
H1       0.71471    0.13741    0.49659   1.00
C6       0.80258    0.16168    0.48309   1.00
C6       0.82847    0.13513    0.49929   1.00
C3c      0.86961    0.17777    0.51461   1.00
H1       0.87681    0.22183    0.51568   1.00
C3d      0.81125    0.06705    0.49823   1.00
H1       0.78436    0.03723    0.48807   1.00
C3       0.89551    0.15206    0.52893   1.00
H1       0.92227    0.18024    0.53943   1.00
C3       0.84167    0.04477    0.51341   1.00
H1       0.83233    -0.00011   0.51301   1.00
C2       0.88270    0.08630    0.52810   1.00
C2       0.54210    0.78834    0.04716   1.00
C3       0.59825    0.78394    0.04879   1.00
H1       0.60370    0.76288    0.06016   1.00
C3       0.53434    0.81762    0.03014   1.00
H1       0.49495    0.82032    0.02855   1.00
C3a      0.64859    0.80913    0.03426   1.00
H1       0.68780    0.80587    0.03535   1.00
C3b      0.58341    0.84346    0.01514   1.00
H1       0.57730    0.86259    0.00341   1.00
C6       0.64090    0.83832    0.01691   1.00
C6       0.69334    0.86487    0.00071   1.00
C3c      0.69184    0.82223    0.98539   1.00
H1       0.65498    0.77817    0.98432   1.00
C3d      0.74420    0.93295    0.00177   1.00
H1       0.74713    0.96277    0.01193   1.00
C3       0.74345    0.84794    0.97107   1.00
H1       0.74203    0.81976    0.96057   1.00
C3       0.79690    0.95523    0.98659   1.00
H1       0.83244    0.00011    0.98699   1.00
C2       0.79640    0.91370    0.97190   1.00
C2       0.24624    0.45790    0.04716   1.00
C3       0.18569    0.40175    0.04879   1.00
H1       0.15918    0.39630    0.06016   1.00
C3       0.28328    0.46566    0.03014   1.00
H1       0.32537    0.50505    0.02855   1.00
C3a      0.16054    0.35141    0.03426   1.00
H1       0.11808    0.31220    0.03535   1.00
C3b      0.26005    0.41659    0.01514   1.00
H1       0.28529    0.42270    0.00341   1.00
C6       0.19742    0.35910    0.01691   1.00
C6       0.17153    0.30666    0.00071   1.00
C3c      0.13039    0.30816    0.98539   1.00
H1       0.12319    0.34502    0.98432   1.00
C3d      0.18875    0.25580    0.00177   1.00
H1       0.21564    0.25287    0.01193   1.00
C3       0.10449    0.25655    0.97107   1.00
H1       0.07773    0.25797    0.96057   1.00
C3       0.15833    0.20310    0.98659   1.00
H1       0.16767    0.16756    0.98699   1.00
C2       0.11730    0.20360    0.97190   1.00
C2       0.21166    0.75376    0.04716   1.00
C3       0.21606    0.81431    0.04879   1.00
H1       0.23712    0.84082    0.06016   1.00
C3       0.18238    0.71672    0.03014   1.00
H1       0.17968    0.67463    0.02855   1.00
C3a      0.19087    0.83946    0.03426   1.00
H1       0.19413    0.88192    0.03535   1.00
C3b      0.15654    0.73995    0.01514   1.00
H1       0.13741    0.71471    0.00341   1.00
C6       0.16168    0.80258    0.01691   1.00
C6       0.13513    0.82847    0.00071   1.00
C3c      0.17777    0.86961    0.98539   1.00
H1       0.22183    0.87681    0.98432   1.00
C3d      0.06705    0.81125    0.00177   1.00
H1       0.03723    0.78436    0.01193   1.00
C3       0.15206    0.89551    0.97107   1.00
H1       0.18024    0.92227    0.96057   1.00
C3       0.04477    0.84167    0.98659   1.00
H1       -0.00011   0.83233    0.98699   1.00
C2       0.08630    0.88270    0.97190   1.00
C2       0.21166    0.45790    0.54716   1.00
C3       0.21606    0.40175    0.54879   1.00
H1       0.23712    0.39630    0.56016   1.00
C3       0.18238    0.46566    0.53014   1.00
H1       0.17968    0.50505    0.52855   1.00
C3a      0.19087    0.35141    0.53426   1.00
H1       0.19413    0.31220    0.53535   1.00
C3b      0.15654    0.41659    0.51514   1.00
H1       0.13741    0.42270    0.50341   1.00
C6       0.16168    0.35910    0.51691   1.00
C6       0.13513    0.30666    0.50071   1.00
C3c      0.17777    0.30816    0.48539   1.00
H1       0.22183    0.34502    0.48432   1.00
C3d      0.06705    0.25580    0.50177   1.00
H1       0.03723    0.25287    0.51193   1.00
C3       0.15206    0.25655    0.47107   1.00
H1       0.18024    0.25797    0.46057   1.00
C3       0.04477    0.20310    0.48659   1.00
H1       -0.00011   0.16756    0.48699   1.00
C2       0.08630    0.20360    0.47190   1.00
C2       0.54210    0.75376    0.54716   1.00
C3       0.59825    0.81431    0.54879   1.00
H1       0.60370    0.84082    0.56016   1.00
C3       0.53434    0.71672    0.53014   1.00
H1       0.49495    0.67463    0.52855   1.00
C3a      0.64859    0.83946    0.53426   1.00
H1       0.68780    0.88192    0.53535   1.00
C3b      0.58341    0.73995    0.51514   1.00
H1       0.57730    0.71471    0.50341   1.00
C6       0.64090    0.80258    0.51691   1.00
C6       0.69334    0.82847    0.50071   1.00
C3c      0.69184    0.86961    0.48539   1.00
H1       0.65498    0.87681    0.48432   1.00
C3d      0.74420    0.81125    0.50177   1.00
H1       0.74713    0.78436    0.51193   1.00
C3       0.74345    0.89551    0.47107   1.00
H1       0.74203    0.92227    0.46057   1.00
C3       0.79690    0.84167    0.48659   1.00
H1       0.83244    0.83233    0.48699   1.00
C2       0.79640    0.88270    0.47190   1.00
C2       0.24624    0.78834    0.54716   1.00
C3       0.18569    0.78394    0.54879   1.00
H1       0.15918    0.76288    0.56016   1.00
C3       0.28328    0.81762    0.53014   1.00
H1       0.32537    0.82032    0.52855   1.00
C3a      0.16054    0.80913    0.53426   1.00
H1       0.11808    0.80587    0.53535   1.00
C3b      0.26005    0.84346    0.51514   1.00
H1       0.28529    0.86259    0.50341   1.00
C6       0.19742    0.83832    0.51691   1.00
C6       0.17153    0.86487    0.50071   1.00
C3c      0.13039    0.82223    0.48539   1.00
H1       0.12319    0.77817    0.48432   1.00
C3d      0.18875    0.93295    0.50177   1.00
H1       0.21564    0.96277    0.51193   1.00
C3       0.10449    0.84794    0.47107   1.00
H1       0.07773    0.81976    0.46057   1.00
C3       0.15833    0.95523    0.48659   1.00
H1       0.16767    0.00011    0.48699   1.00
C2       0.11730    0.91370    0.47190   1.00
C2       0.45790    0.21166    0.95284   1.00
C3       0.40175    0.21606    0.95121   1.00
H1       0.39630    0.23712    0.93984   1.00
C3       0.46566    0.18238    0.96986   1.00
H1       0.50505    0.17968    0.97145   1.00
C3a      0.35141    0.19087    0.96574   1.00
H1       0.31220    0.19413    0.96465   1.00
C3b      0.41659    0.15654    0.98486   1.00
H1       0.42270    0.13741    0.99659   1.00
C6       0.35910    0.16168    0.98309   1.00
C6       0.30666    0.13513    0.99929   1.00
C3c      0.30816    0.17777    0.01461   1.00
H1       0.34502    0.22183    0.01568   1.00
C3d      0.25580    0.06705    0.99823   1.00
H1       0.25287    0.03723    0.98807   1.00
C3       0.25655    0.15206    0.02893   1.00
H1       0.25797    0.18024    0.03943   1.00
C3       0.20310    0.04477    0.01341   1.00
H1       0.16756    -0.00011   0.01301   1.00
C2       0.20360    0.08630    0.02810   1.00
C2       0.75376    0.54210    0.95284   1.00
C3       0.81431    0.59825    0.95121   1.00
H1       0.84082    0.60370    0.93984   1.00
C3       0.71672    0.53434    0.96986   1.00
H1       0.67463    0.49495    0.97145   1.00
C3a      0.83946    0.64859    0.96574   1.00
H1       0.88192    0.68780    0.96465   1.00
C3b      0.73995    0.58341    0.98486   1.00
H1       0.71471    0.57730    0.99659   1.00
C6       0.80258    0.64090    0.98309   1.00
C6       0.82847    0.69334    0.99929   1.00
C3c      0.86961    0.69184    0.01461   1.00
H1       0.87681    0.65498    0.01568   1.00
C3d      0.81125    0.74420    0.99823   1.00
H1       0.78436    0.74713    0.98807   1.00
C3       0.89551    0.74345    0.02893   1.00
H1       0.92227    0.74203    0.03943   1.00
C3       0.84167    0.79690    0.01341   1.00
H1       0.83233    0.83244    0.01301   1.00
C2       0.88270    0.79640    0.02810   1.00
C2       0.78834    0.24624    0.95284   1.00
C3       0.78394    0.18569    0.95121   1.00
H1       0.76288    0.15918    0.93984   1.00
C3       0.81762    0.28328    0.96986   1.00
H1       0.82032    0.32537    0.97145   1.00
C3a      0.80913    0.16054    0.96574   1.00
H1       0.80587    0.11808    0.96465   1.00
C3b      0.84346    0.26005    0.98486   1.00
H1       0.86259    0.28529    0.99659   1.00
C6       0.83832    0.19742    0.98309   1.00
C6       0.86487    0.17153    0.99929   1.00
C3c      0.82223    0.13039    0.01461   1.00
H1       0.77817    0.12319    0.01568   1.00
C3d      0.93295    0.18875    0.99823   1.00
H1       0.96277    0.21564    0.98807   1.00
C3       0.84794    0.10449    0.02893   1.00
H1       0.81976    0.07773    0.03943   1.00
C3       0.95523    0.15833    0.01341   1.00
H1       0.00011    0.16767    0.01301   1.00
C2       0.91370    0.11730    0.02810   1.00
C2       0.45501    0.87543    0.78617   1.00
C3       0.45061    0.93158    0.78454   1.00
H1       0.42955    0.93703    0.77317   1.00
C3       0.48429    0.86767    0.80319   1.00
H1       0.48699    0.82828    0.80478   1.00
C3a      0.47580    0.98192    0.79907   1.00
H1       0.47254    1.02113    0.79798   1.00
C3b      0.51013    0.91674    0.81819   1.00
H1       0.52926    0.91063    0.82992   1.00
C6       0.50499    0.97423    0.81642   1.00
C6       0.53154    0.02667    0.83262   1.00
C3c      0.48890    0.02517    0.84794   1.00
H1       0.44484    -0.01169   0.84901   1.00
C3d      0.59962    0.07753    0.83156   1.00
H1       0.62944    0.08046    0.82140   1.00
C3       0.51461    0.07678    0.86226   1.00
H1       0.48643    0.07536    0.87276   1.00
C3       0.62190    0.13023    0.84674   1.00
H1       0.66678    0.16577    0.84634   1.00
C2       0.58037    0.12973    0.86143   1.00
C2       0.12457    0.57957    0.78617   1.00
C3       0.06842    0.51902    0.78454   1.00
H1       0.06297    0.49251    0.77317   1.00
C3       0.13233    0.61661    0.80319   1.00
H1       0.17172    0.65870    0.80478   1.00
C3a      0.01808    0.49387    0.79907   1.00
H1       -0.02113   0.45141    0.79798   1.00
C3b      0.08326    0.59338    0.81819   1.00
H1       0.08937    0.61862    0.82992   1.00
C6       0.02577    0.53075    0.81642   1.00
C6       0.97333    0.50486    0.83262   1.00
C3c      0.97483    0.46372    0.84794   1.00
H1       1.01169    0.45652    0.84901   1.00
C3d      0.92247    0.52208    0.83156   1.00
H1       0.91954    0.54897    0.82140   1.00
C3       0.92322    0.43782    0.86226   1.00
H1       0.92464    0.41106    0.87276   1.00
C3       0.86977    0.49166    0.84674   1.00
H1       0.83423    0.50100    0.84634   1.00
C2       0.87027    0.45063    0.86143   1.00
C2       0.42043    0.54499    0.78617   1.00
C3       0.48098    0.54939    0.78454   1.00
H1       0.50749    0.57045    0.77317   1.00
C3       0.38339    0.51571    0.80319   1.00
H1       0.34130    0.51301    0.80478   1.00
C3a      0.50613    0.52420    0.79907   1.00
H1       0.54859    0.52746    0.79798   1.00
C3b      0.40662    0.48987    0.81819   1.00
H1       0.38138    0.47074    0.82992   1.00
C6       0.46925    0.49501    0.81642   1.00
C6       0.49514    0.46846    0.83262   1.00
C3c      0.53628    0.51110    0.84794   1.00
H1       0.54348    0.55516    0.84901   1.00
C3d      0.47792    0.40038    0.83156   1.00
H1       0.45103    0.37056    0.82140   1.00
C3       0.56218    0.48539    0.86226   1.00
H1       0.58894    0.51357    0.87276   1.00
C3       0.50834    0.37810    0.84674   1.00
H1       0.49900    0.33322    0.84634   1.00
C2       0.54937    0.41963    0.86143   1.00
C2       0.20877    0.12167    0.38049   1.00
C3       0.26492    0.11727    0.38212   1.00
H1       0.27037    0.09621    0.39349   1.00
C3       0.20101    0.15095    0.36347   1.00
H1       0.16162    0.15365    0.36188   1.00
C3a      0.31526    0.14246    0.36759   1.00
H1       0.35447    0.13920    0.36868   1.00
C3b      0.25008    0.17679    0.34847   1.00
H1       0.24397    0.19592    0.33674   1.00
C6       0.30757    0.17165    0.35024   1.00
C6       0.36001    0.19820    0.33404   1.00
C3c      0.35851    0.15556    0.31872   1.00
H1       0.32165    0.11150    0.31765   1.00
C3d      0.41087    0.26628    0.33510   1.00
H1       0.41380    0.29610    0.34526   1.00
C3       0.41012    0.18127    0.30440   1.00
H1       0.40870    0.15309    0.29390   1.00
C3       0.46357    0.28856    0.31992   1.00
H1       0.49911    0.33344    0.32032   1.00
C2       0.46307    0.24703    0.30523   1.00
C2       0.91291    0.79123    0.38049   1.00
C3       0.85236    0.73508    0.38212   1.00
H1       0.82585    0.72963    0.39349   1.00
C3       0.94995    0.79899    0.36347   1.00
H1       0.99204    0.83838    0.36188   1.00
C3a      0.82721    0.68474    0.36759   1.00
H1       0.78475    0.64553    0.36868   1.00
C3b      0.92672    0.74992    0.34847   1.00
H1       0.95196    0.75603    0.33674   1.00
C6       0.86409    0.69243    0.35024   1.00
C6       0.83820    0.63999    0.33404   1.00
C3c      0.79706    0.64149    0.31872   1.00
H1       0.78986    0.67835    0.31765   1.00
C3d      0.85542    0.58913    0.33510   1.00
H1       0.88231    0.58620    0.34526   1.00
C3       0.77116    0.58988    0.30440   1.00
H1       0.74440    0.59130    0.29390   1.00
C3       0.82500    0.53643    0.31992   1.00
H1       0.83434    0.50089    0.32032   1.00
C2       0.78397    0.53693    0.30523   1.00
C2       0.87833    0.08709    0.38049   1.00
C3       0.88273    0.14764    0.38212   1.00
H1       0.90379    0.17415    0.39349   1.00
C3       0.84905    0.05005    0.36347   1.00
H1       0.84635    0.00796    0.36188   1.00
C3a      0.85754    0.17279    0.36759   1.00
H1       0.86080    0.21525    0.36868   1.00
C3b      0.82321    0.07328    0.34847   1.00
H1       0.80408    0.04804    0.33674   1.00
C6       0.82835    0.13591    0.35024   1.00
C6       0.80180    0.16180    0.33404   1.00
C3c      0.84444    0.20294    0.31872   1.00
H1       0.88850    0.21014    0.31765   1.00
C3d      0.73372    0.14458    0.33510   1.00
H1       0.70390    0.11769    0.34526   1.00
C3       0.81873    0.22884    0.30440   1.00
H1       0.84691    0.25560    0.29390   1.00
C3       0.71144    0.17500    0.31992   1.00
H1       0.66656    0.16566    0.32032   1.00
C2       0.75297    0.21603    0.30523   1.00
C2       0.87833    0.79123    0.88049   1.00
C3       0.88273    0.73508    0.88212   1.00
H1       0.90379    0.72963    0.89349   1.00
C3       0.84905    0.79899    0.86347   1.00
H1       0.84635    0.83838    0.86188   1.00
C3a      0.85754    0.68474    0.86759   1.00
H1       0.86080    0.64553    0.86868   1.00
C3b      0.82321    0.74992    0.84847   1.00
H1       0.80408    0.75603    0.83674   1.00
C6       0.82835    0.69243    0.85024   1.00
C6       0.80180    0.63999    0.83404   1.00
C3c      0.84444    0.64149    0.81872   1.00
H1       0.88850    0.67835    0.81765   1.00
C3d      0.73372    0.58913    0.83510   1.00
H1       0.70390    0.58620    0.84526   1.00
C3       0.81873    0.58988    0.80440   1.00
H1       0.84691    0.59130    0.79390   1.00
C3       0.71144    0.53643    0.81992   1.00
H1       0.66656    0.50089    0.82032   1.00
C2       0.75297    0.53693    0.80523   1.00
C2       0.20877    0.08709    0.88049   1.00
C3       0.26492    0.14764    0.88212   1.00
H1       0.27037    0.17415    0.89349   1.00
C3       0.20101    0.05005    0.86347   1.00
H1       0.16162    0.00796    0.86188   1.00
C3a      0.31526    0.17279    0.86759   1.00
H1       0.35447    0.21525    0.86868   1.00
C3b      0.25008    0.07328    0.84847   1.00
H1       0.24397    0.04804    0.83674   1.00
C6       0.30757    0.13591    0.85024   1.00
C6       0.36001    0.16180    0.83404   1.00
C3c      0.35851    0.20294    0.81872   1.00
H1       0.32165    0.21014    0.81765   1.00
C3d      0.41087    0.14458    0.83510   1.00
H1       0.41380    0.11769    0.84526   1.00
C3       0.41012    0.22884    0.80440   1.00
H1       0.40870    0.25560    0.79390   1.00
C3       0.46357    0.17500    0.81992   1.00
H1       0.49911    0.16566    0.82032   1.00
C2       0.46307    0.21603    0.80523   1.00
C2       0.91291    0.12167    0.88049   1.00
C3       0.85236    0.11727    0.88212   1.00
H1       0.82585    0.09621    0.89349   1.00
C3       0.94995    0.15095    0.86347   1.00
H1       0.99204    0.15365    0.86188   1.00
C3a      0.82721    0.14246    0.86759   1.00
H1       0.78475    0.13920    0.86868   1.00
C3b      0.92672    0.17679    0.84847   1.00
H1       0.95196    0.19592    0.83674   1.00
C6       0.86409    0.17165    0.85024   1.00
C6       0.83820    0.19820    0.83404   1.00
C3c      0.79706    0.15556    0.81872   1.00
H1       0.78986    0.11150    0.81765   1.00
C3d      0.85542    0.26628    0.83510   1.00
H1       0.88231    0.29610    0.84526   1.00
C3       0.77116    0.18127    0.80440   1.00
H1       0.74440    0.15309    0.79390   1.00
C3       0.82500    0.28856    0.81992   1.00
H1       0.83434    0.33344    0.82032   1.00
C2       0.78397    0.24703    0.80523   1.00
C2       0.12457    0.54499    0.28617   1.00
C3       0.06842    0.54939    0.28454   1.00
H1       0.06297    0.57045    0.27317   1.00
C3       0.13233    0.51571    0.30319   1.00
H1       0.17172    0.51301    0.30478   1.00
C3a      0.01808    0.52420    0.29907   1.00
H1       -0.02113   0.52746    0.29798   1.00
C3b      0.08326    0.48987    0.31819   1.00
H1       0.08937    0.47074    0.32992   1.00
C6       0.02577    0.49501    0.31642   1.00
C6       0.97333    0.46846    0.33262   1.00
C3c      0.97483    0.51110    0.34794   1.00
H1       1.01169    0.55516    0.34901   1.00
C3d      0.92247    0.40038    0.33156   1.00
H1       0.91954    0.37056    0.32140   1.00
C3       0.92322    0.48539    0.36226   1.00
H1       0.92464    0.51357    0.37276   1.00
C3       0.86977    0.37810    0.34674   1.00
H1       0.83423    0.33322    0.34634   1.00
C2       0.87027    0.41963    0.36143   1.00
C2       0.42043    0.87543    0.28617   1.00
C3       0.48098    0.93158    0.28454   1.00
H1       0.50749    0.93703    0.27317   1.00
C3       0.38339    0.86767    0.30319   1.00
H1       0.34130    0.82828    0.30478   1.00
C3a      0.50613    0.98192    0.29907   1.00
H1       0.54859    1.02113    0.29798   1.00
C3b      0.40662    0.91674    0.31819   1.00
H1       0.38138    0.91063    0.32992   1.00
C6       0.46925    0.97423    0.31642   1.00
C6       0.49514    0.02667    0.33262   1.00
C3c      0.53628    0.02517    0.34794   1.00
H1       0.54348    -0.01169   0.34901   1.00
C3d      0.47792    0.07753    0.33156   1.00
H1       0.45103    0.08046    0.32140   1.00
C3       0.56218    0.07678    0.36226   1.00
H1       0.58894    0.07536    0.37276   1.00
C3       0.50834    0.13023    0.34674   1.00
H1       0.49900    0.16577    0.34634   1.00
C2       0.54937    0.12973    0.36143   1.00
C2       0.45501    0.57957    0.28617   1.00
C3       0.45061    0.51902    0.28454   1.00
H1       0.42955    0.49251    0.27317   1.00
C3       0.48429    0.61661    0.30319   1.00
H1       0.48699    0.65870    0.30478   1.00
C3a      0.47580    0.49387    0.29907   1.00
H1       0.47254    0.45141    0.29798   1.00
C3b      0.51013    0.59338    0.31819   1.00
H1       0.52926    0.61862    0.32992   1.00
C6       0.50499    0.53075    0.31642   1.00
C6       0.53154    0.50486    0.33262   1.00
C3c      0.48890    0.46372    0.34794   1.00
H1       0.44484    0.45652    0.34901   1.00
C3d      0.59962    0.52208    0.33156   1.00
H1       0.62944    0.54897    0.32140   1.00
C3       0.51461    0.43782    0.36226   1.00
H1       0.48643    0.41106    0.37276   1.00
C3       0.62190    0.49166    0.34674   1.00
H1       0.66678    0.50100    0.34634   1.00
C2       0.58037    0.45063    0.36143   1.00
C2       0.12167    0.20877    0.11951   1.00
C3       0.11727    0.26492    0.11788   1.00
H1       0.09621    0.27037    0.10651   1.00
C3       0.15095    0.20101    0.13653   1.00
H1       0.15365    0.16162    0.13812   1.00
C3a      0.14246    0.31526    0.13241   1.00
H1       0.13920    0.35447    0.13132   1.00
C3b      0.17679    0.25008    0.15153   1.00
H1       0.19592    0.24397    0.16326   1.00
C6       0.17165    0.30757    0.14976   1.00
C6       0.19820    0.36001    0.16596   1.00
C3c      0.15556    0.35851    0.18128   1.00
H1       0.11150    0.32165    0.18235   1.00
C3d      0.26628    0.41087    0.16490   1.00
H1       0.29610    0.41380    0.15474   1.00
C3       0.18127    0.41012    0.19560   1.00
H1       0.15309    0.40870    0.20610   1.00
C3       0.28856    0.46357    0.18008   1.00
H1       0.33344    0.49911    0.17968   1.00
C2       0.24703    0.46307    0.19477   1.00
C2       0.79123    0.91291    0.11951   1.00
C3       0.73508    0.85236    0.11788   1.00
H1       0.72963    0.82585    0.10651   1.00
C3       0.79899    0.94995    0.13653   1.00
H1       0.83838    0.99204    0.13812   1.00
C3a      0.68474    0.82721    0.13241   1.00
H1       0.64553    0.78475    0.13132   1.00
C3b      0.74992    0.92672    0.15153   1.00
H1       0.75603    0.95196    0.16326   1.00
C6       0.69243    0.86409    0.14976   1.00
C6       0.63999    0.83820    0.16596   1.00
C3c      0.64149    0.79706    0.18128   1.00
H1       0.67835    0.78986    0.18235   1.00
C3d      0.58913    0.85542    0.16490   1.00
H1       0.58620    0.88231    0.15474   1.00
C3       0.58988    0.77116    0.19560   1.00
H1       0.59130    0.74440    0.20610   1.00
C3       0.53643    0.82500    0.18008   1.00
H1       0.50089    0.83434    0.17968   1.00
C2       0.53693    0.78397    0.19477   1.00
C2       0.08709    0.87833    0.11951   1.00
C3       0.14764    0.88273    0.11788   1.00
H1       0.17415    0.90379    0.10651   1.00
C3       0.05005    0.84905    0.13653   1.00
H1       0.00796    0.84635    0.13812   1.00
C3a      0.17279    0.85754    0.13241   1.00
H1       0.21525    0.86080    0.13132   1.00
C3b      0.07328    0.82321    0.15153   1.00
H1       0.04804    0.80408    0.16326   1.00
C6       0.13591    0.82835    0.14976   1.00
C6       0.16180    0.80180    0.16596   1.00
C3c      0.20294    0.84444    0.18128   1.00
H1       0.21014    0.88850    0.18235   1.00
C3d      0.14458    0.73372    0.16490   1.00
H1       0.11769    0.70390    0.15474   1.00
C3       0.22884    0.81873    0.19560   1.00
H1       0.25560    0.84691    0.20610   1.00
C3       0.17500    0.71144    0.18008   1.00
H1       0.16566    0.66656    0.17968   1.00
C2       0.21603    0.75297    0.19477   1.00
C2       0.87543    0.45501    0.71383   1.00
C3       0.93158    0.45061    0.71546   1.00
H1       0.93703    0.42955    0.72683   1.00
C3       0.86767    0.48429    0.69681   1.00
H1       0.82828    0.48699    0.69522   1.00
C3a      0.98192    0.47580    0.70093   1.00
H1       1.02113    0.47254    0.70202   1.00
C3b      0.91674    0.51013    0.68181   1.00
H1       0.91063    0.52926    0.67008   1.00
C6       0.97423    0.50499    0.68358   1.00
C6       0.02667    0.53154    0.66738   1.00
C3c      0.02517    0.48890    0.65206   1.00
H1       -0.01169   0.44484    0.65099   1.00
C3d      0.07753    0.59962    0.66844   1.00
H1       0.08046    0.62944    0.67860   1.00
C3       0.07678    0.51461    0.63774   1.00
H1       0.07536    0.48643    0.62724   1.00
C3       0.13023    0.62190    0.65326   1.00
H1       0.16577    0.66678    0.65366   1.00
C2       0.12973    0.58037    0.63857   1.00
C2       0.57957    0.12457    0.71383   1.00
C3       0.51902    0.06842    0.71546   1.00
H1       0.49251    0.06297    0.72683   1.00
C3       0.61661    0.13233    0.69681   1.00
H1       0.65870    0.17172    0.69522   1.00
C3a      0.49387    0.01808    0.70093   1.00
H1       0.45141    -0.02113   0.70202   1.00
C3b      0.59338    0.08326    0.68181   1.00
H1       0.61862    0.08937    0.67008   1.00
C6       0.53075    0.02577    0.68358   1.00
C6       0.50486    0.97333    0.66738   1.00
C3c      0.46372    0.97483    0.65206   1.00
H1       0.45652    1.01169    0.65099   1.00
C3d      0.52208    0.92247    0.66844   1.00
H1       0.54897    0.91954    0.67860   1.00
C3       0.43782    0.92322    0.63774   1.00
H1       0.41106    0.92464    0.62724   1.00
C3       0.49166    0.86977    0.65326   1.00
H1       0.50100    0.83423    0.65366   1.00
C2       0.45063    0.87027    0.63857   1.00
C2       0.54499    0.42043    0.71383   1.00
C3       0.54939    0.48098    0.71546   1.00
H1       0.57045    0.50749    0.72683   1.00
C3       0.51571    0.38339    0.69681   1.00
H1       0.51301    0.34130    0.69522   1.00
C3a      0.52420    0.50613    0.70093   1.00
H1       0.52746    0.54859    0.70202   1.00
C3b      0.48987    0.40662    0.68181   1.00
H1       0.47074    0.38138    0.67008   1.00
C6       0.49501    0.46925    0.68358   1.00
C6       0.46846    0.49514    0.66738   1.00
C3c      0.51110    0.53628    0.65206   1.00
H1       0.55516    0.54348    0.65099   1.00
C3d      0.40038    0.47792    0.66844   1.00
H1       0.37056    0.45103    0.67860   1.00
C3       0.48539    0.56218    0.63774   1.00
H1       0.51357    0.58894    0.62724   1.00
C3       0.37810    0.50834    0.65326   1.00
H1       0.33322    0.49900    0.65366   1.00
C2       0.41963    0.54937    0.63857   1.00
C2       0.54499    0.12457    0.21383   1.00
C3       0.54939    0.06842    0.21546   1.00
H1       0.57045    0.06297    0.22683   1.00
C3       0.51571    0.13233    0.19681   1.00
H1       0.51301    0.17172    0.19522   1.00
C3a      0.52420    0.01808    0.20093   1.00
H1       0.52746    -0.02113   0.20202   1.00
C3b      0.48987    0.08326    0.18181   1.00
H1       0.47074    0.08937    0.17008   1.00
C6       0.49501    0.02577    0.18358   1.00
C6       0.46846    0.97333    0.16738   1.00
C3c      0.51110    0.97483    0.15206   1.00
H1       0.55516    1.01169    0.15099   1.00
C3d      0.40038    0.92247    0.16844   1.00
H1       0.37056    0.91954    0.17860   1.00
C3       0.48539    0.92322    0.13774   1.00
H1       0.51357    0.92464    0.12724   1.00
C3       0.37810    0.86977    0.15326   1.00
H1       0.33322    0.83423    0.15366   1.00
C2       0.41963    0.87027    0.13857   1.00
C2       0.87543    0.42043    0.21383   1.00
C3       0.93158    0.48098    0.21546   1.00
H1       0.93703    0.50749    0.22683   1.00
C3       0.86767    0.38339    0.19681   1.00
H1       0.82828    0.34130    0.19522   1.00
C3a      0.98192    0.50613    0.20093   1.00
H1       1.02113    0.54859    0.20202   1.00
C3b      0.91674    0.40662    0.18181   1.00
H1       0.91063    0.38138    0.17008   1.00
C6       0.97423    0.46925    0.18358   1.00
C6       0.02667    0.49514    0.16738   1.00
C3c      0.02517    0.53628    0.15206   1.00
H1       -0.01169   0.54348    0.15099   1.00
C3d      0.07753    0.47792    0.16844   1.00
H1       0.08046    0.45103    0.17860   1.00
C3       0.07678    0.56218    0.13774   1.00
H1       0.07536    0.58894    0.12724   1.00
C3       0.13023    0.50834    0.15326   1.00
H1       0.16577    0.49900    0.15366   1.00
C2       0.12973    0.54937    0.13857   1.00
C2       0.57957    0.45501    0.21383   1.00
C3       0.51902    0.45061    0.21546   1.00
H1       0.49251    0.42955    0.22683   1.00
C3       0.61661    0.48429    0.19681   1.00
H1       0.65870    0.48699    0.19522   1.00
C3a      0.49387    0.47580    0.20093   1.00
H1       0.45141    0.47254    0.20202   1.00
C3b      0.59338    0.51013    0.18181   1.00
H1       0.61862    0.52926    0.17008   1.00
C6       0.53075    0.50499    0.18358   1.00
C6       0.50486    0.53154    0.16738   1.00
C3c      0.46372    0.48890    0.15206   1.00
H1       0.45652    0.44484    0.15099   1.00
C3d      0.52208    0.59962    0.16844   1.00
H1       0.54897    0.62944    0.17860   1.00
C3       0.43782    0.51461    0.13774   1.00
H1       0.41106    0.48643    0.12724   1.00
C3       0.49166    0.62190    0.15326   1.00
H1       0.50100    0.66678    0.15366   1.00
C2       0.45063    0.58037    0.13857   1.00
C2       0.79123    0.87833    0.61951   1.00
C3       0.73508    0.88273    0.61788   1.00
H1       0.72963    0.90379    0.60651   1.00
C3       0.79899    0.84905    0.63653   1.00
H1       0.83838    0.84635    0.63812   1.00
C3a      0.68474    0.85754    0.63241   1.00
H1       0.64553    0.86080    0.63132   1.00
C3b      0.74992    0.82321    0.65153   1.00
H1       0.75603    0.80408    0.66326   1.00
C6       0.69243    0.82835    0.64976   1.00
C6       0.63999    0.80180    0.66596   1.00
C3c      0.64149    0.84444    0.68128   1.00
H1       0.67835    0.88850    0.68235   1.00
C3d      0.58913    0.73372    0.66490   1.00
H1       0.58620    0.70390    0.65474   1.00
C3       0.58988    0.81873    0.69560   1.00
H1       0.59130    0.84691    0.70610   1.00
C3       0.53643    0.71144    0.68008   1.00
H1       0.50089    0.66656    0.67968   1.00
C2       0.53693    0.75297    0.69477   1.00
C2       0.08709    0.20877    0.61951   1.00
C3       0.14764    0.26492    0.61788   1.00
H1       0.17415    0.27037    0.60651   1.00
C3       0.05005    0.20101    0.63653   1.00
H1       0.00796    0.16162    0.63812   1.00
C3a      0.17279    0.31526    0.63241   1.00
H1       0.21525    0.35447    0.63132   1.00
C3b      0.07328    0.25008    0.65153   1.00
H1       0.04804    0.24397    0.66326   1.00
C6       0.13591    0.30757    0.64976   1.00
C6       0.16180    0.36001    0.66596   1.00
C3c      0.20294    0.35851    0.68128   1.00
H1       0.21014    0.32165    0.68235   1.00
C3d      0.14458    0.41087    0.66490   1.00
H1       0.11769    0.41380    0.65474   1.00
C3       0.22884    0.41012    0.69560   1.00
H1       0.25560    0.40870    0.70610   1.00
C3       0.17500    0.46357    0.68008   1.00
H1       0.16566    0.49911    0.67968   1.00
C2       0.21603    0.46307    0.69477   1.00
C2       0.12167    0.91291    0.61951   1.00
C3       0.11727    0.85236    0.61788   1.00
H1       0.09621    0.82585    0.60651   1.00
C3       0.15095    0.94995    0.63653   1.00
H1       0.15365    0.99204    0.63812   1.00
C3a      0.14246    0.82721    0.63241   1.00
H1       0.13920    0.78475    0.63132   1.00
C3b      0.17679    0.92672    0.65153   1.00
H1       0.19592    0.95196    0.66326   1.00
C6       0.17165    0.86409    0.64976   1.00
C6       0.19820    0.83820    0.66596   1.00
C3c      0.15556    0.79706    0.68128   1.00
H1       0.11150    0.78986    0.68235   1.00
C3d      0.26628    0.85542    0.66490   1.00
H1       0.29610    0.88231    0.65474   1.00
C3       0.18127    0.77116    0.69560   1.00
H1       0.15309    0.74440    0.70610   1.00
C3       0.28856    0.82500    0.68008   1.00
H1       0.33344    0.83434    0.67968   1.00
C2       0.24703    0.78397    0.69477   1.00
