data_IRMOF10_interpen_symm_ligand4cp_label_b_1.

_audit_creation_method             'generated by an auxiliary program of Tobunporous'

_symmetry_space_group_name_H-M     'P 1'
_symmetry_Int_Tables_number        1
_symmetry_cell_setting             triclinic

_cell_length_a                    22.6523
_cell_length_b                    22.6523
_cell_length_c                    65.9502
_cell_angle_alpha                 90.0000
_cell_angle_beta                  90.0000
_cell_angle_gamma                 120.0000

loop_
_atom_site_label
_atom_site_fract_x
_atom_site_fract_y
_atom_site_fract_z
_atom_site_occupancy
O1       0.00000    0.00000    0.57470   1.00
Zn1      0.00000    0.00000    0.54560   1.00
Zn1      0.94843    0.04287    0.58357   1.00
Zn1      0.09443    0.05157    0.58357   1.00
Zn1      0.95713    0.90557    0.58357   1.00
O2       0.93860    0.02610    0.53560   1.00
O2       0.08750    0.06140    0.53560   1.00
O2       0.97390    0.91250    0.53560   1.00
O2       0.91300    0.07160    0.56150   1.00
O2       0.00463    0.12027    0.60077   1.00
O2       0.87413    0.98077    0.60037   1.00
O2       0.15860    0.08700    0.56150   1.00
O2       0.10663    0.12587    0.60037   1.00
O2       0.11563    0.99537    0.60077   1.00
O2       0.92840    0.84140    0.56150   1.00
O2       0.87973    0.88437    0.60077   1.00
O2       0.01923    0.89337    0.60037   1.00
C1       0.91390    0.06020    0.54330   1.00
C1       0.14630    0.08610    0.54330   1.00
C1       0.93980    0.85370    0.54330   1.00
C1       0.06663    0.14397    0.60637   1.00
C1       0.85603    0.92267    0.60637   1.00
C1       0.07733    0.93337    0.60637   1.00
O1       0.00000    0.00000    0.92530   1.00
Zn1      0.00000    0.00000    0.95440   1.00
Zn1      0.04287    0.94843    0.91643   1.00
Zn1      0.05157    0.09443    0.91643   1.00
Zn1      0.90557    0.95713    0.91643   1.00
O2       0.02610    0.93860    0.96440   1.00
O2       0.06140    0.08750    0.96440   1.00
O2       0.91250    0.97390    0.96440   1.00
O2       0.07160    0.91300    0.93850   1.00
O2       0.12027    0.00463    0.89923   1.00
O2       0.98077    0.87413    0.89963   1.00
O2       0.08700    0.15860    0.93850   1.00
O2       0.12587    0.10663    0.89963   1.00
O2       0.99537    0.11563    0.89923   1.00
O2       0.84140    0.92840    0.93850   1.00
O2       0.88437    0.87973    0.89923   1.00
O2       0.89337    0.01923    0.89963   1.00
C1       0.06020    0.91390    0.95670   1.00
C1       0.08610    0.14630    0.95670   1.00
C1       0.85370    0.93980    0.95670   1.00
C1       0.14397    0.06663    0.89363   1.00
C1       0.92267    0.85603    0.89363   1.00
C1       0.93337    0.07733    0.89363   1.00
O1       0.00000    0.00000    0.42530   1.00
Zn1      0.00000    0.00000    0.45440   1.00
Zn1      0.05157    0.95713    0.41643   1.00
Zn1      0.90557    0.94843    0.41643   1.00
Zn1      0.04287    0.09443    0.41643   1.00
O2       0.06140    0.97390    0.46440   1.00
O2       0.91250    0.93860    0.46440   1.00
O2       0.02610    0.08750    0.46440   1.00
O2       0.08700    0.92840    0.43850   1.00
O2       0.99537    0.87973    0.39923   1.00
O2       0.12587    0.01923    0.39963   1.00
O2       0.84140    0.91300    0.43850   1.00
O2       0.89337    0.87413    0.39963   1.00
O2       0.88437    0.00463    0.39923   1.00
O2       0.07160    0.15860    0.43850   1.00
O2       0.12027    0.11563    0.39923   1.00
O2       0.98077    0.10663    0.39963   1.00
C1       0.08610    0.93980    0.45670   1.00
C1       0.85370    0.91390    0.45670   1.00
C1       0.06020    0.14630    0.45670   1.00
C1       0.93337    0.85603    0.39363   1.00
C1       0.14397    0.07733    0.39363   1.00
C1       0.92267    0.06663    0.39363   1.00
O1       0.00000    0.00000    0.07470   1.00
Zn1      0.00000    0.00000    0.04560   1.00
Zn1      0.95713    0.05157    0.08357   1.00
Zn1      0.94843    0.90557    0.08357   1.00
Zn1      0.09443    0.04287    0.08357   1.00
O2       0.97390    0.06140    0.03560   1.00
O2       0.93860    0.91250    0.03560   1.00
O2       0.08750    0.02610    0.03560   1.00
O2       0.92840    0.08700    0.06150   1.00
O2       0.87973    0.99537    0.10077   1.00
O2       0.01923    0.12587    0.10037   1.00
O2       0.91300    0.84140    0.06150   1.00
O2       0.87413    0.89337    0.10037   1.00
O2       0.00463    0.88437    0.10077   1.00
O2       0.15860    0.07160    0.06150   1.00
O2       0.11563    0.12027    0.10077   1.00
O2       0.10663    0.98077    0.10037   1.00
C1       0.93980    0.08610    0.04330   1.00
C1       0.91390    0.85370    0.04330   1.00
C1       0.14630    0.06020    0.04330   1.00
C1       0.85603    0.93337    0.10637   1.00
C1       0.07733    0.14397    0.10637   1.00
C1       0.06663    0.92267    0.10637   1.00
O1       0.66667    0.33333    0.90803   1.00
Zn1      0.66667    0.33333    0.87893   1.00
Zn1      0.61510    0.37620    0.91690   1.00
Zn1      0.76110    0.38490    0.91690   1.00
Zn1      0.62380    0.23890    0.91690   1.00
O2       0.60527    0.35943    0.86893   1.00
O2       0.75417    0.39473    0.86893   1.00
O2       0.64057    0.24583    0.86893   1.00
O2       0.57967    0.40493    0.89483   1.00
O2       0.67130    0.45360    0.93410   1.00
O2       0.54080    0.31410    0.93370   1.00
O2       0.82527    0.42033    0.89483   1.00
O2       0.77330    0.45920    0.93370   1.00
O2       0.78230    0.32870    0.93410   1.00
O2       0.59507    0.17473    0.89483   1.00
O2       0.54640    0.21770    0.93410   1.00
O2       0.68590    0.22670    0.93370   1.00
C1       0.58057    0.39353    0.87663   1.00
C1       0.81297    0.41943    0.87663   1.00
C1       0.60647    0.18703    0.87663   1.00
C1       0.73330    0.47730    0.93970   1.00
C1       0.52270    0.25600    0.93970   1.00
C1       0.74400    0.26670    0.93970   1.00
O1       0.66667    0.33333    0.25863   1.00
Zn1      0.66667    0.33333    0.28773   1.00
Zn1      0.70953    0.28177    0.24977   1.00
Zn1      0.71823    0.42777    0.24977   1.00
Zn1      0.57223    0.29047    0.24977   1.00
O2       0.69277    0.27193    0.29773   1.00
O2       0.72807    0.42083    0.29773   1.00
O2       0.57917    0.30723    0.29773   1.00
O2       0.73827    0.24633    0.27183   1.00
O2       0.78693    0.33797    0.23257   1.00
O2       0.64743    0.20747    0.23297   1.00
O2       0.75367    0.49193    0.27183   1.00
O2       0.79253    0.43997    0.23297   1.00
O2       0.66203    0.44897    0.23257   1.00
O2       0.50807    0.26173    0.27183   1.00
O2       0.55103    0.21307    0.23257   1.00
O2       0.56003    0.35257    0.23297   1.00
C1       0.72687    0.24723    0.29003   1.00
C1       0.75277    0.47963    0.29003   1.00
C1       0.52037    0.27313    0.29003   1.00
C1       0.81063    0.39997    0.22697   1.00
C1       0.58933    0.18937    0.22697   1.00
C1       0.60003    0.41067    0.22697   1.00
O1       0.66667    0.33333    0.75863   1.00
Zn1      0.66667    0.33333    0.78773   1.00
Zn1      0.71823    0.29047    0.74977   1.00
Zn1      0.57223    0.28177    0.74977   1.00
Zn1      0.70953    0.42777    0.74977   1.00
O2       0.72807    0.30723    0.79773   1.00
O2       0.57917    0.27193    0.79773   1.00
O2       0.69277    0.42083    0.79773   1.00
O2       0.75367    0.26173    0.77183   1.00
O2       0.66203    0.21307    0.73257   1.00
O2       0.79253    0.35257    0.73297   1.00
O2       0.50807    0.24633    0.77183   1.00
O2       0.56003    0.20747    0.73297   1.00
O2       0.55103    0.33797    0.73257   1.00
O2       0.73827    0.49193    0.77183   1.00
O2       0.78693    0.44897    0.73257   1.00
O2       0.64743    0.43997    0.73297   1.00
C1       0.75277    0.27313    0.79003   1.00
C1       0.52037    0.24723    0.79003   1.00
C1       0.72687    0.47963    0.79003   1.00
C1       0.60003    0.18937    0.72697   1.00
C1       0.81063    0.41067    0.72697   1.00
C1       0.58933    0.39997    0.72697   1.00
O1       0.66667    0.33333    0.40803   1.00
Zn1      0.66667    0.33333    0.37893   1.00
Zn1      0.62380    0.38490    0.41690   1.00
Zn1      0.61510    0.23890    0.41690   1.00
Zn1      0.76110    0.37620    0.41690   1.00
O2       0.64057    0.39473    0.36893   1.00
O2       0.60527    0.24583    0.36893   1.00
O2       0.75417    0.35943    0.36893   1.00
O2       0.59507    0.42033    0.39483   1.00
O2       0.54640    0.32870    0.43410   1.00
O2       0.68590    0.45920    0.43370   1.00
O2       0.57967    0.17473    0.39483   1.00
O2       0.54080    0.22670    0.43370   1.00
O2       0.67130    0.21770    0.43410   1.00
O2       0.82527    0.40493    0.39483   1.00
O2       0.78230    0.45360    0.43410   1.00
O2       0.77330    0.31410    0.43370   1.00
C1       0.60647    0.41943    0.37663   1.00
C1       0.58057    0.18703    0.37663   1.00
C1       0.81297    0.39353    0.37663   1.00
C1       0.52270    0.26670    0.43970   1.00
C1       0.74400    0.47730    0.43970   1.00
C1       0.73330    0.25600    0.43970   1.00
O1       0.33333    0.66667    0.24137   1.00
Zn1      0.33333    0.66667    0.21227   1.00
Zn1      0.28177    0.70953    0.25023   1.00
Zn1      0.42777    0.71823    0.25023   1.00
Zn1      0.29047    0.57223    0.25023   1.00
O2       0.27193    0.69277    0.20227   1.00
O2       0.42083    0.72807    0.20227   1.00
O2       0.30723    0.57917    0.20227   1.00
O2       0.24633    0.73827    0.22817   1.00
O2       0.33797    0.78693    0.26743   1.00
O2       0.20747    0.64743    0.26703   1.00
O2       0.49193    0.75367    0.22817   1.00
O2       0.43997    0.79253    0.26703   1.00
O2       0.44897    0.66203    0.26743   1.00
O2       0.26173    0.50807    0.22817   1.00
O2       0.21307    0.55103    0.26743   1.00
O2       0.35257    0.56003    0.26703   1.00
C1       0.24723    0.72687    0.20997   1.00
C1       0.47963    0.75277    0.20997   1.00
C1       0.27313    0.52037    0.20997   1.00
C1       0.39997    0.81063    0.27303   1.00
C1       0.18937    0.58933    0.27303   1.00
C1       0.41067    0.60003    0.27303   1.00
O1       0.33333    0.66667    0.59197   1.00
Zn1      0.33333    0.66667    0.62107   1.00
Zn1      0.37620    0.61510    0.58310   1.00
Zn1      0.38490    0.76110    0.58310   1.00
Zn1      0.23890    0.62380    0.58310   1.00
O2       0.35943    0.60527    0.63107   1.00
O2       0.39473    0.75417    0.63107   1.00
O2       0.24583    0.64057    0.63107   1.00
O2       0.40493    0.57967    0.60517   1.00
O2       0.45360    0.67130    0.56590   1.00
O2       0.31410    0.54080    0.56630   1.00
O2       0.42033    0.82527    0.60517   1.00
O2       0.45920    0.77330    0.56630   1.00
O2       0.32870    0.78230    0.56590   1.00
O2       0.17473    0.59507    0.60517   1.00
O2       0.21770    0.54640    0.56590   1.00
O2       0.22670    0.68590    0.56630   1.00
C1       0.39353    0.58057    0.62337   1.00
C1       0.41943    0.81297    0.62337   1.00
C1       0.18703    0.60647    0.62337   1.00
C1       0.47730    0.73330    0.56030   1.00
C1       0.25600    0.52270    0.56030   1.00
C1       0.26670    0.74400    0.56030   1.00
O1       0.33333    0.66667    0.09197   1.00
Zn1      0.33333    0.66667    0.12107   1.00
Zn1      0.38490    0.62380    0.08310   1.00
Zn1      0.23890    0.61510    0.08310   1.00
Zn1      0.37620    0.76110    0.08310   1.00
O2       0.39473    0.64057    0.13107   1.00
O2       0.24583    0.60527    0.13107   1.00
O2       0.35943    0.75417    0.13107   1.00
O2       0.42033    0.59507    0.10517   1.00
O2       0.32870    0.54640    0.06590   1.00
O2       0.45920    0.68590    0.06630   1.00
O2       0.17473    0.57967    0.10517   1.00
O2       0.22670    0.54080    0.06630   1.00
O2       0.21770    0.67130    0.06590   1.00
O2       0.40493    0.82527    0.10517   1.00
O2       0.45360    0.78230    0.06590   1.00
O2       0.31410    0.77330    0.06630   1.00
C1       0.41943    0.60647    0.12337   1.00
C1       0.18703    0.58057    0.12337   1.00
C1       0.39353    0.81297    0.12337   1.00
C1       0.26670    0.52270    0.06030   1.00
C1       0.47730    0.74400    0.06030   1.00
C1       0.25600    0.73330    0.06030   1.00
O1       0.33333    0.66667    0.74137   1.00
Zn1      0.33333    0.66667    0.71227   1.00
Zn1      0.29047    0.71823    0.75023   1.00
Zn1      0.28177    0.57223    0.75023   1.00
Zn1      0.42777    0.70953    0.75023   1.00
O2       0.30723    0.72807    0.70227   1.00
O2       0.27193    0.57917    0.70227   1.00
O2       0.42083    0.69277    0.70227   1.00
O2       0.26173    0.75367    0.72817   1.00
O2       0.21307    0.66203    0.76743   1.00
O2       0.35257    0.79253    0.76703   1.00
O2       0.24633    0.50807    0.72817   1.00
O2       0.20747    0.56003    0.76703   1.00
O2       0.33797    0.55103    0.76743   1.00
O2       0.49193    0.73827    0.72817   1.00
O2       0.44897    0.78693    0.76743   1.00
O2       0.43997    0.64743    0.76703   1.00
C1       0.27313    0.75277    0.70997   1.00
C1       0.24723    0.52037    0.70997   1.00
C1       0.47963    0.72687    0.70997   1.00
C1       0.18937    0.60003    0.77303   1.00
C1       0.41067    0.81063    0.77303   1.00
C1       0.39997    0.58933    0.77303   1.00
C4       0.83320    0.62478    0.49010   1.00
C4       0.85959    0.68014    0.50418   1.00
C3       0.87575    0.61493    0.47622   1.00
C3       0.93087    0.72521    0.50685   1.00
C3       0.76162    0.57701    0.48964   1.00
C3       0.81371    0.69158    0.51621   1.00
C2       0.78032    0.51096    0.46229   1.00
C2       0.91298    0.79412    0.53194   1.00
C3       0.85030    0.55962    0.46279   1.00
C3       0.95687    0.78069    0.52022   1.00
C3       0.73779    0.52116    0.47582   1.00
C3       0.84224    0.74888    0.52957   1.00
H1       0.92674    0.64796    0.47520   1.00
H1       0.96659    0.71901    0.49932   1.00
C5       0.71587    0.58585    0.50265   1.00
C5       0.74151    0.64624    0.51482   1.00
H1       0.88369    0.55524    0.45322   1.00
H1       1.00880    0.81147    0.52138   1.00
H1       0.68731    0.48588    0.47514   1.00
H1       0.81125    0.75895    0.53827   1.00
C6       0.64142    0.53110    0.50355   1.00
C6       0.69336    0.66306    0.52600   1.00
H2       0.63775    0.48128    0.50413   1.00
H2       0.71062    0.71709    0.52407   1.00
H2       0.61819    0.53202    0.51788   1.00
H2       0.64340    0.63950    0.51887   1.00
C6       0.59807    0.53571    0.48573   1.00
C6       0.68457    0.64233    0.54896   1.00
H2       0.62597    0.54478    0.47147   1.00
H2       0.73440    0.65730    0.55556   1.00
C6       0.52460    0.47361    0.48248   1.00
C6       0.64854    0.67055    0.56299   1.00
H2       0.59394    0.58123    0.48817   1.00
H2       0.65599    0.58668    0.54974   1.00
C6       0.52641    0.40893    0.47571   1.00
C6       0.69166    0.74913    0.56533   1.00
C6       0.48063    0.45729    0.50191   1.00
C6       0.57674    0.65105    0.55497   1.00
C6       0.48926    0.49181    0.46538   1.00
C6       0.63998    0.63876    0.58441   1.00
H2       0.55801    0.41909    0.46220   1.00
H2       0.74307    0.76465    0.57066   1.00
H2       0.54687    0.39077    0.48757   1.00
H2       0.69620    0.77502    0.55101   1.00
H2       0.47535    0.36734    0.47213   1.00
H2       0.66847    0.76775    0.57623   1.00
H2       0.42819    0.41719    0.49907   1.00
H2       0.55016    0.66670    0.56559   1.00
H2       0.50070    0.43964    0.51404   1.00
H2       0.58015    0.67597    0.54052   1.00
H2       0.47969    0.50241    0.50724   1.00
H2       0.54579    0.59606    0.55277   1.00
H2       0.51795    0.50312    0.45123   1.00
H2       0.68939    0.65162    0.59087   1.00
H2       0.43782    0.44974    0.46246   1.00
H2       0.61539    0.65731    0.59483   1.00
H2       0.48519    0.53637    0.46945   1.00
H2       0.60875    0.58329    0.58382   1.00
C4       0.36717    0.19537    0.48706   1.00
C4       0.30855    0.16597    0.49993   1.00
C3       0.42174    0.18173    0.48952   1.00
C3       0.29704    0.11550    0.51475   1.00
C3       0.37232    0.24032    0.47105   1.00
C3       0.25897    0.18718    0.49811   1.00
C2       0.48417    0.25213    0.46041   1.00
C2       0.19175    0.10892    0.52665   1.00
C3       0.47834    0.20891    0.47656   1.00
C3       0.24065    0.08802    0.52779   1.00
C3       0.43062    0.26663    0.45812   1.00
C3       0.20244    0.15822    0.51176   1.00
H1       0.42274    0.15208    0.50094   1.00
H1       0.32885    0.09632    0.51648   1.00
C5       0.32037    0.25822    0.46835   1.00
C5       0.26630    0.23570    0.48291   1.00
H1       0.51585    0.19689    0.47909   1.00
H1       0.23541    0.05199    0.53820   1.00
H1       0.43588    0.29838    0.44648   1.00
H1       0.16637    0.17235    0.51102   1.00
C6       0.32283    0.29991    0.45008   1.00
C6       0.21746    0.26306    0.48257   1.00
H2       0.33571    0.28045    0.43668   1.00
H2       0.20972    0.27486    0.49803   1.00
H2       0.27251    0.29128    0.44613   1.00
H2       0.24009    0.31290    0.47541   1.00
C6       0.37245    0.37837    0.45290   1.00
C6       0.14811    0.21397    0.47183   1.00
H2       0.42016    0.38694    0.45969   1.00
H2       0.12981    0.16161    0.47685   1.00
C6       0.39075    0.42466    0.43362   1.00
C6       0.08839    0.22934    0.47449   1.00
H2       0.34989    0.39667    0.46414   1.00
H2       0.15830    0.21408    0.45563   1.00
C6       0.43291    0.40924    0.41815   1.00
C6       0.06323    0.21945    0.49678   1.00
C6       0.32605    0.41665    0.42304   1.00
C6       0.10929    0.30255    0.46750   1.00
C6       0.43509    0.50026    0.44027   1.00
C6       0.02744    0.17847    0.46118   1.00
H2       0.47841    0.41337    0.42525   1.00
H2       0.04913    0.16857    0.50228   1.00
H2       0.40323    0.35808    0.41189   1.00
H2       0.10236    0.25654    0.50683   1.00
H2       0.44942    0.44487    0.40545   1.00
H2       0.01862    0.22564    0.49821   1.00
H2       0.33950    0.45262    0.41051   1.00
H2       0.06595    0.31108    0.46804   1.00
H2       0.29527    0.36548    0.41684   1.00
H2       0.14896    0.34049    0.47727   1.00
H2       0.29472    0.42584    0.43372   1.00
H2       0.12856    0.31132    0.45198   1.00
H2       0.48190    0.50886    0.44765   1.00
H2       0.01018    0.12587    0.46565   1.00
H2       0.44959    0.53465    0.42728   1.00
H2       -0.01582   0.18689    0.46263   1.00
H2       0.40755    0.51467    0.45091   1.00
H2       0.04163    0.18393    0.44519   1.00
C4       0.80359    0.16996    0.48676   1.00
C4       0.83236    0.14024    0.49968   1.00
C3       0.82865    0.24153    0.48618   1.00
C3       0.89251    0.18038    0.51131   1.00
C3       0.74751    0.12724    0.47385   1.00
C3       0.80051    0.06768    0.50121   1.00
C2       0.74762    0.23047    0.45992   1.00
C2       0.88872    0.08024    0.52658   1.00
C3       0.80184    0.27101    0.47311   1.00
C3       0.91973    0.15143    0.52443   1.00
C3       0.72191    0.15932    0.46068   1.00
C3       0.82963    0.04022    0.51483   1.00
H1       0.86689    0.27486    0.49538   1.00
H1       0.91919    0.23215    0.51052   1.00
C5       0.71823    0.05459    0.47438   1.00
C5       0.74149    0.02458    0.48924   1.00
H1       0.82236    0.32299    0.47336   1.00
H1       0.96308    0.18318    0.53245   1.00
H1       0.68238    0.13070    0.45118   1.00
H1       0.80817    -0.01112   0.51643   1.00
C6       0.66382    0.01064    0.45913   1.00
C6       0.70412    -0.05179   0.49259   1.00
H2       0.67873    0.03425    0.44420   1.00
H2       0.69939    -0.06206   0.50883   1.00
H2       0.66217    -0.03760   0.45661   1.00
H2       0.65099    -0.07537   0.48801   1.00
C6       0.59083    -0.00388   0.46521   1.00
C6       0.73808    -0.08843   0.48145   1.00
H2       0.59377    0.04316    0.47061   1.00
H2       0.79333    -0.05919   0.48359   1.00
C6       0.53363    -0.03552   0.44868   1.00
C6       0.71331    -0.16425   0.48736   1.00
H2       0.57425    -0.03799   0.47832   1.00
H2       0.73017    -0.08643   0.46517   1.00
C6       0.54797    0.01465    0.43087   1.00
C6       0.73261    -0.17033   0.50953   1.00
C6       0.52500    -0.10325   0.44025   1.00
C6       0.63528    -0.21013   0.48457   1.00
C6       0.46501    -0.05111   0.45852   1.00
C6       0.74906    -0.19175   0.47326   1.00
H2       0.55543    0.06343    0.43636   1.00
H2       0.78729    -0.13765   0.51209   1.00
H2       0.59343    0.02461    0.42246   1.00
H2       0.70586    -0.15576   0.52036   1.00
H2       0.50561    -0.00594   0.42014   1.00
H2       0.71938    -0.22261   0.51306   1.00
H2       0.48186    -0.12734   0.42982   1.00
H2       0.61927    -0.26360   0.48733   1.00
H2       0.57031    -0.09446   0.43194   1.00
H2       0.60754    -0.19589   0.49515   1.00
H2       0.51626    -0.13900   0.45253   1.00
H2       0.62014    -0.20569   0.46919   1.00
H2       0.46813    -0.00472   0.46455   1.00
H2       0.80442    -0.16149   0.47481   1.00
H2       0.42345    -0.07293   0.44751   1.00
H2       0.73371    -0.24455   0.47690   1.00
H2       0.45136    -0.08742   0.47097   1.00
H2       0.73630    -0.19008   0.45739   1.00
C4       0.62469    0.83296    0.00987   1.00
C4       0.68007    0.85929    -0.00421   1.00
C3       0.61376    0.87578    0.02334   1.00
C3       0.72402    0.93057    -0.00729   1.00
C3       0.57802    0.76117    0.01074   1.00
C3       0.69269    0.81335    -0.01579   1.00
C2       0.51080    0.78011    0.03765   1.00
C2       0.79412    0.91266    -0.03194   1.00
C3       0.55840    0.85033    0.03675   1.00
C3       0.77953    0.95656    -0.02065   1.00
C3       0.52209    0.73734    0.02453   1.00
C3       0.74998    0.84190    -0.02915   1.00
H1       0.64599    0.92700    0.02406   1.00
H1       0.71693    0.96626    -0.00010   1.00
C5       0.58802    0.71523    -0.00184   1.00
C5       0.64849    0.74107    -0.01397   1.00
H1       0.55321    0.88391    0.04601   1.00
H1       0.80946    1.00849    -0.02213   1.00
H1       0.48757    0.68670    0.02549   1.00
H1       0.76088    0.81087    -0.03754   1.00
C6       0.53436    0.64034    -0.00232   1.00
C6       0.66661    0.69307    -0.02467   1.00
H2       0.48406    0.63552    -0.00308   1.00
H2       0.72085    0.71151    -0.02266   1.00
H2       0.53582    0.61637    -0.01645   1.00
H2       0.64393    0.64369    -0.01721   1.00
C6       0.54001    0.59890    0.01588   1.00
C6       0.64584    0.68225    -0.04763   1.00
H2       0.54854    0.62771    0.02993   1.00
H2       0.65984    0.73135    -0.05459   1.00
C6       0.47889    0.52512    0.01950   1.00
C6       0.67521    0.64628    -0.06123   1.00
H2       0.58613    0.59569    0.01367   1.00
H2       0.59023    0.65266    -0.04839   1.00
C6       0.41344    0.52591    0.02599   1.00
C6       0.75369    0.69053    -0.06362   1.00
C6       0.46339    0.47989    0.00039   1.00
C6       0.65714    0.57547    -0.05268   1.00
C6       0.49811    0.49186    0.03697   1.00
C6       0.64326    0.63553    -0.08270   1.00
H2       0.42299    0.55834    0.03926   1.00
H2       0.76821    0.74130    -0.06932   1.00
H2       0.39460    0.54484    0.01388   1.00
H2       0.77977    0.69664    -0.04923   1.00
H2       0.37255    0.47475    0.02983   1.00
H2       0.77305    0.66725    -0.07423   1.00
H2       0.42405    0.42735    0.00351   1.00
H2       0.67358    0.54880    -0.06300   1.00
H2       0.44508    0.49843    -0.01199   1.00
H2       0.68226    0.58046    -0.03816   1.00
H2       0.50905    0.47962    -0.00475   1.00
H2       0.60224    0.54378    -0.05044   1.00
H2       0.50888    0.52150    0.05092   1.00
H2       0.65514    0.68418    -0.08953   1.00
H2       0.45674    0.44027    0.04016   1.00
H2       0.66259    0.61091    -0.09283   1.00
H2       0.54326    0.48857    0.03312   1.00
H2       0.58788    0.60344    -0.08207   1.00
C4       0.19537    0.36716    0.01295   1.00
C4       0.16598    0.30855    0.00007   1.00
C3       0.18169    0.42171    0.01050   1.00
C3       0.11547    0.29701    -0.01473   1.00
C3       0.24037    0.37234    0.02894   1.00
C3       0.18723    0.25900    0.00188   1.00
C2       0.25213    0.48416    0.03959   1.00
C2       0.10893    0.19175    -0.02665   1.00
C3       0.20886    0.47831    0.02345   1.00
C3       0.08799    0.24062    -0.02777   1.00
C3       0.26668    0.43065    0.04187   1.00
C3       0.15827    0.20247    -0.01177   1.00
H1       0.15200    0.42268    -0.00092   1.00
H1       0.09625    0.32879    -0.01646   1.00
C5       0.25832    0.32042    0.03163   1.00
C5       0.23580    0.26636    0.01707   1.00
H1       0.19680    0.51580    0.02093   1.00
H1       0.05192    0.23535    -0.03818   1.00
H1       0.29846    0.43593    0.05350   1.00
H1       0.17244    0.16642    -0.01104   1.00
C6       0.30007    0.32292    0.04989   1.00
C6       0.26321    0.21756    0.01739   1.00
H2       0.28063    0.33578    0.06329   1.00
H2       0.27498    0.20983    0.00193   1.00
H2       0.29148    0.27261    0.05383   1.00
H2       0.31307    0.24022    0.02454   1.00
C6       0.37851    0.37258    0.04705   1.00
C6       0.21417    0.14820    0.02813   1.00
H2       0.38704    0.42028    0.04027   1.00
H2       0.16180    0.12986    0.02313   1.00
C6       0.42485    0.39090    0.06632   1.00
C6       0.22958    0.08851    0.02546   1.00
H2       0.39681    0.35003    0.03581   1.00
H2       0.21432    0.15839    0.04434   1.00
C6       0.40943    0.43303    0.08180   1.00
C6       0.21966    0.06336    0.00317   1.00
C6       0.41691    0.32622    0.07689   1.00
C6       0.30282    0.10946    0.03244   1.00
C6       0.50043    0.43528    0.05966   1.00
C6       0.17877    0.02755    0.03877   1.00
H2       0.41352    0.47853    0.07471   1.00
H2       0.16876    0.04922    -0.00232   1.00
H2       0.35829    0.40333    0.08807   1.00
H2       0.25671    0.10250    -0.00689   1.00
H2       0.44509    0.44957    0.09450   1.00
H2       0.22589    0.01877    0.00173   1.00
H2       0.45291    0.33969    0.08942   1.00
H2       0.31139    0.06614    0.03188   1.00
H2       0.36576    0.29541    0.08311   1.00
H2       0.34073    0.14914    0.02266   1.00
H2       0.42610    0.29491    0.06621   1.00
H2       0.31162    0.12873    0.04796   1.00
H2       0.50899    0.48208    0.05228   1.00
H2       0.12616    0.01025    0.03432   1.00
H2       0.53485    0.44980    0.07264   1.00
H2       0.18723    -0.01569   0.03732   1.00
H2       0.51485    0.40777    0.04901   1.00
H2       0.18426    0.04173    0.05477   1.00
C4       0.16996    0.80359    0.01324   1.00
C4       0.14024    0.83236    0.00032   1.00
C3       0.24153    0.82865    0.01382   1.00
C3       0.18038    0.89251    -0.01131   1.00
C3       0.12724    0.74751    0.02615   1.00
C3       0.06768    0.80051    -0.00121   1.00
C2       0.23047    0.74762    0.04008   1.00
C2       0.08024    0.88872    -0.02658   1.00
C3       0.27101    0.80184    0.02689   1.00
C3       0.15143    0.91973    -0.02443   1.00
C3       0.15932    0.72191    0.03932   1.00
C3       0.04022    0.82963    -0.01483   1.00
H1       0.27486    0.86689    0.00462   1.00
H1       0.23215    0.91919    -0.01052   1.00
C5       0.05459    0.71823    0.02562   1.00
C5       0.02458    0.74149    0.01076   1.00
H1       0.32299    0.82236    0.02664   1.00
H1       0.18318    0.96308    -0.03245   1.00
H1       0.13070    0.68238    0.04882   1.00
H1       -0.01112   0.80817    -0.01643   1.00
C6       0.01064    0.66383    0.04087   1.00
C6       -0.05179   0.70412    0.00741   1.00
H2       0.03425    0.67873    0.05580   1.00
H2       -0.06206   0.69939    -0.00883   1.00
H2       -0.03760   0.66217    0.04339   1.00
H2       -0.07537   0.65099    0.01199   1.00
C6       -0.00388   0.59083    0.03479   1.00
C6       -0.08843   0.73808    0.01855   1.00
H2       0.04316    0.59377    0.02939   1.00
H2       -0.05919   0.79333    0.01641   1.00
C6       -0.03552   0.53363    0.05132   1.00
C6       -0.16425   0.71332    0.01264   1.00
H2       -0.03799   0.57425    0.02168   1.00
H2       -0.08643   0.73017    0.03483   1.00
C6       0.01465    0.54798    0.06913   1.00
C6       -0.17033   0.73261    -0.00953   1.00
C6       -0.10325   0.52500    0.05976   1.00
C6       -0.21013   0.63528    0.01543   1.00
C6       -0.05111   0.46501    0.04148   1.00
C6       -0.19175   0.74906    0.02674   1.00
H2       0.06343    0.55543    0.06364   1.00
H2       -0.13765   0.78729    -0.01209   1.00
H2       0.02461    0.59343    0.07754   1.00
H2       -0.15576   0.70586    -0.02036   1.00
H2       -0.00594   0.50561    0.07986   1.00
H2       -0.22261   0.71938    -0.01306   1.00
H2       -0.12734   0.48186    0.07018   1.00
H2       -0.26360   0.61927    0.01267   1.00
H2       -0.09446   0.57031    0.06806   1.00
H2       -0.19589   0.60754    0.00485   1.00
H2       -0.13900   0.51626    0.04747   1.00
H2       -0.20569   0.62014    0.03081   1.00
H2       -0.00472   0.46813    0.03545   1.00
H2       -0.16149   0.80442    0.02519   1.00
H2       -0.07293   0.42345    0.05249   1.00
H2       -0.24455   0.73371    0.02310   1.00
H2       -0.08742   0.45136    0.02903   1.00
H2       -0.19008   0.73630    0.04261   1.00
C4       0.16735    0.36575    0.51346   1.00
C4       0.14109    0.30808    0.50024   1.00
C3       0.12427    0.38472    0.52391   1.00
C3       0.06991    0.26134    0.49821   1.00
C3       0.23933    0.40665    0.51650   1.00
C3       0.18703    0.29583    0.48852   1.00
C2       0.22018    0.48037    0.54097   1.00
C2       0.08775    0.19332    0.47277   1.00
C3       0.14972    0.44005    0.53733   1.00
C3       0.04391    0.20588    0.48483   1.00
C3       0.26316    0.46235    0.53038   1.00
C3       0.15846    0.23898    0.47499   1.00
H1       0.07282    0.35946    0.52201   1.00
H1       0.03431    0.26545    0.50652   1.00
C5       0.28543    0.39179    0.50575   1.00
C5       0.25932    0.33946    0.49055   1.00
H1       0.11595    0.45092    0.54446   1.00
H1       -0.00796   0.17419    0.48400   1.00
H1       0.31396    0.49232    0.53304   1.00
H1       0.18946    0.22888    0.46630   1.00
C6       0.36079    0.43090    0.51072   1.00
C6       0.30703    0.33026    0.47651   1.00
H2       0.36709    0.43545    0.52714   1.00
H2       0.28709    0.32239    0.46110   1.00
H2       0.38565    0.40187    0.50694   1.00
H2       0.35563    0.37714    0.47488   1.00
C6       0.39973    0.50221    0.50003   1.00
C6       0.32043    0.27167    0.48335   1.00
H2       0.36981    0.52783    0.50126   1.00
H2       0.27232    0.22709    0.48787   1.00
C6       0.47384    0.55316    0.50746   1.00
C6       0.35623    0.24742    0.46782   1.00
H2       0.40173    0.49335    0.48382   1.00
H2       0.35127    0.28850    0.49714   1.00
C6       0.47440    0.57708    0.52955   1.00
C6       0.31056    0.21254    0.44906   1.00
C6       0.52060    0.52155    0.50604   1.00
C6       0.42568    0.30727    0.46069   1.00
C6       0.50440    0.61728    0.49365   1.00
C6       0.36974    0.19402    0.47839   1.00
H2       0.44096    0.59866    0.53113   1.00
H2       0.26068    0.17072    0.45361   1.00
H2       0.45744    0.53511    0.54027   1.00
H2       0.30244    0.24842    0.44018   1.00
H2       0.52562    0.61610    0.53409   1.00
H2       0.33389    0.19164    0.43902   1.00
H2       0.57319    0.55903    0.50986   1.00
H2       0.45241    0.28907    0.45102   1.00
H2       0.50403    0.47895    0.51653   1.00
H2       0.41869    0.34415    0.45193   1.00
H2       0.51999    0.50299    0.49073   1.00
H2       0.45830    0.33362    0.47364   1.00
H2       0.47361    0.64202    0.49426   1.00
H2       0.32213    0.15022    0.48355   1.00
H2       0.55611    0.65468    0.49833   1.00
H2       0.39435    0.17516    0.46809   1.00
H2       0.50666    0.60388    0.47788   1.00
H2       0.40292    0.21603    0.49155   1.00
C4       0.63343    0.80392    0.51317   1.00
C4       0.69044    0.83522    0.49970   1.00
C3       0.62853    0.75856    0.52891   1.00
C3       0.74960    0.82910    0.50235   1.00
C3       0.57872    0.81783    0.51101   1.00
C3       0.68916    0.87443    0.48288   1.00
C2       0.51977    0.74319    0.54103   1.00
C2       0.80435    0.89571    0.47192   1.00
C3       0.57366    0.72933    0.54250   1.00
C3       0.80473    0.85808    0.48885   1.00
C3       0.52394    0.78733    0.52523   1.00
C3       0.74619    0.90280    0.46942   1.00
H1       0.66432    0.74453    0.53097   1.00
H1       0.75515    0.80391    0.51430   1.00
C5       0.57942    0.86081    0.49492   1.00
C5       0.63225    0.88479    0.47991   1.00
H1       0.57328    0.69725    0.55358   1.00
H1       0.84578    0.85157    0.49156   1.00
H1       0.48434    0.79637    0.52428   1.00
H1       0.74695    0.93060    0.45721   1.00
C6       0.52494    0.88090    0.49413   1.00
C6       0.62829    0.92015    0.46089   1.00
H2       0.51702    0.89446    0.50934   1.00
H2       0.64268    0.90044    0.44787   1.00
H2       0.54237    0.92858    0.48602   1.00
H2       0.57597    0.90556    0.45717   1.00
C6       0.45651    0.82477    0.48441   1.00
C6       0.67186    0.99985    0.46218   1.00
H2       0.44369    0.77475    0.49041   1.00
H2       0.72173    1.01472    0.46874   1.00
C6       0.39225    0.83306    0.48684   1.00
C6       0.68393    1.04108    0.44206   1.00
H2       0.46558    0.82249    0.46823   1.00
H2       0.64719    1.01693    0.47308   1.00
C6       0.36916    0.82584    0.50930   1.00
C6       0.72844    1.02798    0.42686   1.00
C6       0.40524    0.90249    0.47847   1.00
C6       0.61576    1.02401    0.43172   1.00
C6       0.33260    0.77566    0.47459   1.00
C6       0.72265    1.11834    0.44722   1.00
H2       0.36064    0.77778    0.51576   1.00
H2       0.77653    1.03850    0.43381   1.00
H2       0.40710    0.86718    0.51859   1.00
H2       0.70241    0.97534    0.42161   1.00
H2       0.32170    0.82696    0.51066   1.00
H2       0.74050    1.06045    0.41350   1.00
H2       0.35877    0.90574    0.47890   1.00
H2       0.62456    1.05649    0.41852   1.00
H2       0.44363    0.94463    0.48746   1.00
H2       0.58856    0.97126    0.42653   1.00
H2       0.42295    0.90948    0.46280   1.00
H2       0.58284    1.03144    0.44224   1.00
H2       0.32084    0.72541    0.48005   1.00
H2       0.77164    1.13326    0.45438   1.00
H2       0.28631    0.77902    0.47592   1.00
H2       0.73270    1.14936    0.43360   1.00
H2       0.34529    0.77887    0.45850   1.00
H2       0.69314    1.13109    0.45760   1.00
C4       0.19618    0.82968    0.51319   1.00
C4       0.16486    0.85540    0.49974   1.00
C3       0.24258    0.87051    0.52868   1.00
C3       0.17209    0.92122    0.50217   1.00
C3       0.18121    0.76064    0.51128   1.00
C3       0.12451    0.81439    0.48315   1.00
C2       0.25698    0.77677    0.54104   1.00
C2       0.10432    0.90880    0.47197   1.00
C3       0.27185    0.84489    0.54226   1.00
C3       0.14307    0.94736    0.48868   1.00
C3       0.21179    0.73640    0.52548   1.00
C3       0.09615    0.84304    0.46968   1.00
H1       0.25738    0.92059    0.53055   1.00
H1       0.19813    0.95238    0.51396   1.00
C5       0.13712    0.71791    0.49544   1.00
C5       0.11304    0.74661    0.48041   1.00
H1       0.30471    0.87687    0.55315   1.00
H1       0.15040    0.99531    0.49123   1.00
H1       0.20202    0.68748    0.52470   1.00
H1       0.06754    0.81563    0.45763   1.00
C6       0.11600    0.64305    0.49493   1.00
C6       0.07641    0.70661    0.46161   1.00
H2       0.10296    0.62237    0.51024   1.00
H2       0.09585    0.74003    0.44844   1.00
H2       0.06782    0.61292    0.48704   1.00
H2       0.09011    0.66818    0.45797   1.00
C6       0.17100    0.62929    0.48509   1.00
C6       -0.00315   0.67152    0.46324   1.00
H2       0.22150    0.66629    0.49084   1.00
H2       -0.01703   0.70735    0.46973   1.00
C6       0.16177    0.55644    0.48776   1.00
C6       -0.04550   0.64179    0.44332   1.00
H2       0.17264    0.63990    0.46887   1.00
H2       -0.02020   0.63026    0.47431   1.00
C6       0.16979    0.54144    0.51024   1.00
C6       -0.03235   0.69888    0.42792   1.00
C6       0.09161    0.50025    0.47976   1.00
C6       -0.02987   0.58951    0.43310   1.00
C6       0.21807    0.55266    0.47535   1.00
C6       -0.12249   0.60443    0.44882   1.00
H2       0.21840    0.58085    0.51645   1.00
H2       -0.04187   0.73724    0.43479   1.00
H2       0.12919    0.53914    0.51966   1.00
H2       0.02001    0.72460    0.42244   1.00
H2       0.16800    0.49259    0.51175   1.00
H2       -0.06554   0.67816    0.41471   1.00
H2       0.08763    0.45021    0.48035   1.00
H2       -0.06311   0.56552    0.42006   1.00
H2       0.05019    0.49758    0.48888   1.00
H2       0.02260    0.61418    0.42767   1.00
H2       0.08406    0.51038    0.46407   1.00
H2       -0.03735   0.54950    0.44375   1.00
H2       0.26879    0.59094    0.48055   1.00
H2       -0.13641   0.63933    0.45592   1.00
H2       0.21403    0.50275    0.47685   1.00
H2       -0.15426   0.58311    0.43535   1.00
H2       0.21424    0.56147    0.45925   1.00
H2       -0.13528   0.56256    0.45936   1.00
C4       0.37518    0.16671    0.99008   1.00
C4       0.31830    0.13639    1.00361   1.00
C3       0.42829    0.23585    0.99199   1.00
C3       0.31413    0.17070    1.02120   1.00
C3       0.37992    0.12717    0.97392   1.00
C3       0.26307    0.06919    0.99966   1.00
C2       0.49192    0.22712    0.96334   1.00
C2       0.20179    0.07646    1.03045   1.00
C3       0.48509    0.26515    0.97911   1.00
C3       0.25756    0.14190    1.03417   1.00
C3       0.43879    0.15881    0.96120   1.00
C3       0.20622    0.04183    1.01318   1.00
H1       0.42736    0.26772    1.00269   1.00
H1       0.35234    0.21763    1.02536   1.00
C5       0.32663    0.05817    0.97071   1.00
C5       0.26566    0.03101    0.98267   1.00
H1       0.52179    0.31520    0.98133   1.00
H1       0.25754    0.16938    1.04656   1.00
H1       0.44422    0.13221    0.94963   1.00
H1       0.16577    -0.00561   1.01080   1.00
C6       0.33573    0.01473    0.95495   1.00
C6       0.20386    -0.03697   0.97743   1.00
H2       0.38717    0.02259    0.95613   1.00
H2       0.15826    -0.03248   0.97858   1.00
H2       0.30488    -0.03931   0.95836   1.00
H2       0.20325    -0.04944   0.96149   1.00
C6       0.31938    0.02777    0.93285   1.00
C6       0.19780    -0.09739   0.99061   1.00
H2       0.34235    0.08260    0.93028   1.00
H2       0.20824    -0.08159   1.00649   1.00
C6       0.34130    -0.00252   0.91494   1.00
C6       0.12882    -0.16660   0.98977   1.00
H2       0.26440    0.00747    0.93183   1.00
H2       0.23872    -0.10682   0.98602   1.00
C6       0.42000    0.03186    0.91328   1.00
C6       0.06943    -0.16015   0.99912   1.00
C6       0.31034    -0.08063   0.91711   1.00
C6       0.11001    -0.19370   0.96777   1.00
C6       0.31473    0.01122    0.89478   1.00
C6       0.13651    -0.22025   1.00240   1.00
H2       0.44351    0.08719    0.91206   1.00
H2       0.08160    -0.14006   1.01456   1.00
H2       0.44176    0.02070    0.92645   1.00
H2       0.05841    -0.12628   0.99023   1.00
H2       0.43482    0.01382    0.89993   1.00
H2       0.02268    -0.20959   0.99975   1.00
H2       0.32188    -0.10194   0.90385   1.00
H2       0.06450    -0.24421   0.96750   1.00
H2       0.33101    -0.09290   0.93035   1.00
H2       0.09943    -0.16010   0.95855   1.00
H2       0.25505    -0.10594   0.91873   1.00
H2       0.15159    -0.19737   0.96068   1.00
H2       0.33569    0.06584    0.89240   1.00
H2       0.14912    -0.20388   1.01816   1.00
H2       0.32919    -0.00865   0.88178   1.00
H2       0.08937    -0.26947   1.00238   1.00
H2       0.25923    -0.01299   0.89486   1.00
H2       0.17684    -0.22811   0.99628   1.00
C4       0.80477    0.63267    0.98711   1.00
C4       0.83585    0.68930    1.00072   1.00
C3       0.77093    0.63393    0.96904   1.00
C3       0.84155    0.75346    0.99617   1.00
C3       0.80703    0.57200    0.99153   1.00
C3       0.86263    0.68246    1.01966   1.00
C2       0.74480    0.51944    0.95908   1.00
C2       0.89569    0.80283    1.02865   1.00
C3       0.74213    0.57925    0.95537   1.00
C3       0.87022    0.80846    1.00972   1.00
C3       0.77740    0.51759    0.97717   1.00
C3       0.89109    0.73957    1.03309   1.00
H1       0.76535    0.67437    0.96522   1.00
H1       0.82569    0.76286    0.98274   1.00
C5       0.83787    0.56663    1.00992   1.00
C5       0.86095    0.62004    1.02472   1.00
H1       0.71868    0.58344    0.94256   1.00
H1       0.87258    0.85330    1.00557   1.00
H1       0.77841    0.47382    0.97970   1.00
H1       0.91022    0.73652    1.04675   1.00
C6       0.84635    0.50517    1.01335   1.00
C6       0.88277    0.61104    1.04566   1.00
H2       0.86450    0.49383    0.99939   1.00
H2       0.86126    0.63019    1.05692   1.00
H2       0.88805    0.51659    1.02372   1.00
H2       0.85916    0.55755    1.04985   1.00
C6       0.77996    0.44135    1.02140   1.00
C6       0.96205    0.64489    1.04798   1.00
H2       0.73593    0.43534    1.01284   1.00
H2       0.98687    0.69558    1.04108   1.00
C6       0.77780    0.37115    1.02122   1.00
C6       0.99128    0.65216    1.06994   1.00
H2       0.77164    0.45217    1.03695   1.00
H2       0.97846    0.61526    1.03893   1.00
C6       0.77829    0.34655    0.99929   1.00
C6       0.97968    0.70258    1.08293   1.00
C6       0.83809    0.37437    1.03325   1.00
C6       0.95960    0.58241    1.08092   1.00
C6       0.71051    0.31704    1.03145   1.00
C6       1.06942    0.68103    1.06843   1.00
H2       0.73695    0.34480    0.99028   1.00
H2       1.00050    0.75204    1.07543   1.00
H2       0.82612    0.38013    0.99159   1.00
H2       0.92566    0.68337    1.08566   1.00
H2       0.77200    0.29553    0.99928   1.00
H2       1.00433    0.71092    1.09771   1.00
H2       0.83343    0.32409    1.03426   1.00
H2       0.98379    0.58726    1.09562   1.00
H2       0.88657    0.40830    1.02589   1.00
H2       0.90532    0.56196    1.08362   1.00
H2       0.83976    0.39293    1.04863   1.00
H2       0.96581    0.54552    1.07188   1.00
H2       0.66619    0.31223    1.02339   1.00
H2       1.09443    0.73073    1.06097   1.00
H2       0.70641    0.26691    1.03157   1.00
H2       1.09231    0.68746    1.08343   1.00
H2       0.70776    0.33086    1.04714   1.00
H2       1.08089    0.64693    1.05976   1.00
C4       0.82971    0.19620    0.98681   1.00
C4       0.85543    0.16488    1.00026   1.00
C3       0.87059    0.24277    0.97136   1.00
C3       0.92134    0.17228    0.99786   1.00
C3       0.76060    0.18105    0.98868   1.00
C3       0.81434    0.12434    1.01681   1.00
C2       0.77680    0.25700    0.95896   1.00
C2       0.90883    0.10432    1.02802   1.00
C3       0.84497    0.27204    0.95778   1.00
C3       0.94747    0.14326    1.01135   1.00
C3       0.73637    0.21165    0.97447   1.00
C3       0.84299    0.09598    1.03027   1.00
H1       0.92072    0.25769    0.96952   1.00
H1       0.95257    0.19847    0.98609   1.00
C5       0.71780    0.13679    1.00447   1.00
C5       0.74648    0.11269    1.01951   1.00
H1       0.87700    0.30503    0.94692   1.00
H1       0.99549    0.15072    1.00883   1.00
H1       0.68740    0.20175    0.97523   1.00
H1       0.81552    0.06724    1.04229   1.00
C6       0.64290    0.11549    1.00494   1.00
C6       0.70637    0.07585    1.03827   1.00
H2       0.62235    0.10254    0.98961   1.00
H2       0.73967    0.09525    1.05146   1.00
H2       0.61278    0.06724    1.01279   1.00
H2       0.66782    0.08941    1.04190   1.00
C6       0.62890    0.17031    1.01480   1.00
C6       0.67145    -0.00368   1.03659   1.00
H2       0.66586    0.22088    1.00909   1.00
H2       0.70741    -0.01740   1.03011   1.00
C6       0.55600    0.16093    1.01209   1.00
C6       0.64163    -0.04621   1.05647   1.00
H2       0.63938    0.17185    1.03102   1.00
H2       0.63027    -0.02073   1.02549   1.00
C6       0.54115    0.16908    0.98960   1.00
C6       0.69863    -0.03306   1.07191   1.00
C6       0.49986    0.09065    1.02003   1.00
C6       0.58916    -0.03082   1.06668   1.00
C6       0.55198    0.21705    1.02452   1.00
C6       0.60446    -0.12315   1.05092   1.00
H2       0.58053    0.21778    0.98344   1.00
H2       0.73712    -0.04241   1.06505   1.00
H2       0.53902    0.12861    0.98016   1.00
H2       0.72421    0.01926    1.07743   1.00
H2       0.49224    0.16718    0.98807   1.00
H2       0.67787    -0.06637   1.08509   1.00
H2       0.44976    0.08655    1.01942   1.00
H2       0.56512    -0.06418   1.07969   1.00
H2       0.49736    0.04935    1.01089   1.00
H2       0.61368    0.02161    1.07214   1.00
H2       0.50989    0.08301    1.03572   1.00
H2       0.54921    -0.03830   1.05600   1.00
H2       0.59021    0.26784    1.01936   1.00
H2       0.63950    -0.13691   1.04383   1.00
H2       0.50202    0.21290    1.02300   1.00
H2       0.58308    -0.15505   1.06436   1.00
H2       0.56067    0.21312    1.04062   1.00
H2       0.56265    -0.13595   1.04035   1.00
C4       0.49537    0.96641    0.82029   1.00
C4       0.52474    1.02500    0.83318   1.00
C3       0.42587    0.91395    0.82196   1.00
C3       0.48510    1.03878    0.84714   1.00
C3       0.53634    0.95910    0.80510   1.00
C3       0.59639    1.07222    0.83225   1.00
C2       0.43503    0.84955    0.79360   1.00
C2       0.58458    1.14169    0.85995   1.00
C3       0.39642    0.85743    0.80897   1.00
C3       0.51403    1.09512    0.86020   1.00
C3       0.50429    0.90096    0.79211   1.00
C3       0.62392    1.12876    0.84589   1.00
H1       0.39421    0.91450    0.83280   1.00
H1       0.43361    1.00877    0.84820   1.00
C5       0.60734    1.00879    0.80326   1.00
C5       0.63848    1.06261    0.81791   1.00
H1       0.34594    0.82151    0.81090   1.00
H1       0.48271    1.10206    0.86998   1.00
H1       0.53163    0.89422    0.78104   1.00
H1       0.67471    1.16319    0.84578   1.00
C6       0.64825    1.00425    0.78577   1.00
C6       0.71512    1.10880    0.81857   1.00
H2       0.61826    0.99265    0.77190   1.00
H2       0.73207    1.11577    0.83430   1.00
H2       0.69197    1.05368    0.78217   1.00
H2       0.74156    1.08423    0.81213   1.00
C6       0.67330    0.95198    0.78957   1.00
C6       0.74005    1.17878    0.80761   1.00
H2       0.63175    0.90510    0.79604   1.00
H2       0.70708    1.19925    0.81181   1.00
C6       0.70264    0.93179    0.77101   1.00
C6       0.81569    1.23617    0.81114   1.00
H2       0.71243    0.97306    0.80136   1.00
H2       0.73229    1.16881    0.79133   1.00
C6       0.64695    0.89147    0.75486   1.00
C6       0.82830    1.26122    0.83346   1.00
C6       0.76274    0.99518    0.76094   1.00
C6       0.86659    1.21212    0.80533   1.00
C6       0.72972    0.88482    0.77863   1.00
C6       0.83071    1.29806    0.79750   1.00
H2       0.60327    0.84696    0.76157   1.00
H2       0.79240    1.27753    0.83814   1.00
H2       0.62856    0.92293    0.74794   1.00
H2       0.82274    1.22128    0.84381   1.00
H2       0.66670    0.87357    0.74268   1.00
H2       0.87976    1.30436    0.83545   1.00
H2       0.78593    0.98024    0.74896   1.00
H2       0.91916    1.25390    0.80646   1.00
H2       0.74547    1.02772    0.75409   1.00
H2       0.86136    1.17160    0.81540   1.00
H2       0.80205    1.02526    0.77208   1.00
H2       0.85786    1.19288    0.78981   1.00
H2       0.68902    0.83881    0.78570   1.00
H2       0.79653    1.31753    0.80115   1.00
H2       0.75038    0.86894    0.76616   1.00
H2       0.88295    1.33977    0.79954   1.00
H2       0.77025    0.91094    0.78979   1.00
H2       0.82403    1.28393    0.78149   1.00
C4       0.03304    0.52974    0.82009   1.00
C4       -0.02546   0.50096    0.83301   1.00
C3       0.07957    0.50469    0.81952   1.00
C3       -0.04545   0.44083    0.84464   1.00
C3       0.04639    0.58580    0.80717   1.00
C3       -0.06618   0.53280    0.83453   1.00
C2       0.14952    0.58571    0.79325   1.00
C2       -0.14181   0.44461    0.85991   1.00
C3       0.13586    0.53151    0.80645   1.00
C3       -0.10162   0.41361    0.85777   1.00
C3       0.10407    0.61140    0.79401   1.00
C3       -0.12276   0.50368    0.84815   1.00
H1       0.07467    0.46647    0.82872   1.00
H1       -0.02035   0.41416    0.84386   1.00
C5       0.00299    0.61506    0.80770   1.00
C5       -0.05027   0.59181    0.82255   1.00
H1       0.16733    0.51100    0.80671   1.00
H1       -0.11321   0.37027    0.86579   1.00
H1       0.11496    0.65092    0.78450   1.00
H1       -0.15264   0.52513    0.84975   1.00
C6       0.01344    0.66945    0.79244   1.00
C6       -0.08929   0.62916    0.82590   1.00
H2       0.02216    0.65454    0.77752   1.00
H2       -0.09484   0.63390    0.84215   1.00
H2       -0.03315   0.67109    0.78992   1.00
H2       -0.05976   0.68228    0.82132   1.00
C6       0.07189    0.74245    0.79852   1.00
C6       -0.15989   0.59517    0.81476   1.00
H2       0.11600    0.73953    0.80392   1.00
H2       -0.18589   0.53992    0.81691   1.00
C6       0.09744    0.79964    0.78198   1.00
C6       -0.21096   0.61992    0.82067   1.00
H2       0.05436    0.75904    0.81162   1.00
H2       -0.14998   0.60306    0.79849   1.00
C6       0.13329    0.78529    0.76417   1.00
C6       -0.23633   0.60065    0.84284   1.00
C6       0.03833    0.80824    0.77354   1.00
C6       -0.17883   0.69795    0.81787   1.00
C6       0.15046    0.86827    0.79182   1.00
C6       -0.27421   0.58415    0.80657   1.00
H2       0.17462    0.77785    0.76967   1.00
H2       -0.25832   0.54597    0.84540   1.00
H2       0.09779    0.73982    0.75577   1.00
H2       -0.19501   0.62742    0.85367   1.00
H2       0.15504    0.82764    0.75344   1.00
H2       -0.27540   0.61386    0.84636   1.00
H2       0.05738    0.85137    0.76311   1.00
H2       -0.21629   0.71395    0.82062   1.00
H2       0.00182    0.76291    0.76524   1.00
H2       -0.13685   0.72571    0.82845   1.00
H2       0.01132    0.81698    0.78582   1.00
H2       -0.15925   0.71308    0.80249   1.00
H2       0.19374    0.86518    0.79785   1.00
H2       -0.29929   0.52879    0.80812   1.00
H2       0.17020    0.90982    0.78080   1.00
H2       -0.31167   0.59949    0.81020   1.00
H2       0.12779    0.88193    0.80427   1.00
H2       -0.25977   0.59690    0.79069   1.00
C4       0.47028    0.50332    0.82010   1.00
C4       0.49907    0.47361    0.83302   1.00
C3       0.49517    0.57487    0.81957   1.00
C3       0.55907    0.51376    0.84470   1.00
C3       0.41437    0.46063    0.80713   1.00
C3       0.46737    0.40105    0.83448   1.00
C2       0.41430    0.56383    0.79326   1.00
C2       0.55543    0.41361    0.85991   1.00
C3       0.46835    0.60435    0.80651   1.00
C3       0.58629    0.48481    0.85782   1.00
C3       0.38877    0.49271    0.79396   1.00
C3       0.49649    0.37359    0.84810   1.00
H1       0.53327    0.60817    0.82881   1.00
H1       0.58563    0.56553    0.84396   1.00
C5       0.38527    0.38799    0.80759   1.00
C5       0.40851    0.35795    0.82245   1.00
H1       0.48873    0.65631    0.80680   1.00
H1       0.62953    0.51656    0.86589   1.00
H1       0.34936    0.46410    0.78442   1.00
H1       0.47514    0.32225    0.84966   1.00
C6       0.33107    0.34410    0.79229   1.00
C6       0.37129    0.28155    0.82574   1.00
H2       0.34606    0.36786    0.77739   1.00
H2       0.36643    0.27112    0.84197   1.00
H2       0.32958    0.29595    0.78974   1.00
H2       0.31820    0.25789    0.82111   1.00
C6       0.25795    0.32930    0.79832   1.00
C6       0.40553    0.24518    0.81459   1.00
H2       0.26069    0.37623    0.80375   1.00
H2       0.46075    0.27453    0.81678   1.00
C6       0.20091    0.29770    0.78174   1.00
C6       0.38090    0.16935    0.82045   1.00
H2       0.24132    0.29507    0.81140   1.00
H2       0.39776    0.24732    0.79832   1.00
C6       0.21530    0.34802    0.76396   1.00
C6       0.40003    0.16312    0.84263   1.00
C6       0.19257    0.23013    0.77326   1.00
C6       0.30291    0.12332    0.81758   1.00
C6       0.13214    0.28182    0.79153   1.00
C6       0.41693    0.14214    0.80635   1.00
H2       0.22256    0.39669    0.76949   1.00
H2       0.45467    0.19589    0.84524   1.00
H2       0.26088    0.35818    0.75559   1.00
H2       0.37308    0.17748    0.85345   1.00
H2       0.17304    0.32743    0.75320   1.00
H2       0.38691    0.11084    0.84611   1.00
H2       0.14953    0.20606    0.76280   1.00
H2       0.28702    0.06986    0.82030   1.00
H2       0.23800    0.23914    0.76498   1.00
H2       0.27498    0.13735    0.82816   1.00
H2       0.18381    0.19430    0.78552   1.00
H2       0.28789    0.12786    0.80220   1.00
H2       0.13506    0.32809    0.79759   1.00
H2       0.47226    0.17251    0.80795   1.00
H2       0.09069    0.26002    0.78048   1.00
H2       0.40168    0.08934    0.80995   1.00
H2       0.11846    0.24541    0.80395   1.00
H2       0.40429    0.14393    0.79047   1.00
C4       0.29069    0.16065    0.34297   1.00
C4       0.34694    0.18617    0.32922   1.00
C3       0.25107    0.19297    0.34572   1.00
C3       0.36301    0.24137    0.31574   1.00
C3       0.27273    0.10062    0.35457   1.00
C3       0.38922    0.15588    0.32871   1.00
C2       0.17488    0.10720    0.37004   1.00
C2       0.46264    0.24001    0.30211   1.00
C3       0.19471    0.16698    0.35875   1.00
C3       0.41925    0.26778    0.30265   1.00
C3       0.21473    0.07559    0.36759   1.00
C3       0.44623    0.18453    0.31524   1.00
H1       0.26208    0.23699    0.33850   1.00
H1       0.33404    0.26402    0.31477   1.00
C5       0.31244    0.06747    0.35309   1.00
C5       0.37391    0.09834    0.34131   1.00
H1       0.16805    0.19252    0.35999   1.00
H1       0.42825    0.30783    0.29336   1.00
H1       0.20008    0.03278    0.37598   1.00
H1       0.47775    0.16469    0.31454   1.00
C6       0.28862    0.00008    0.36378   1.00
C6       0.42310    0.07147    0.34220   1.00
H2       0.23391    -0.03235   0.36147   1.00
H2       0.47500    0.11435    0.34322   1.00
H2       0.30834    -0.02963   0.35653   1.00
H2       0.41853    0.04491    0.35636   1.00
C6       0.30779    0.00828    0.38686   1.00
C6       0.41473    0.02318    0.32404   1.00
H2       0.29712    0.04598    0.39367   1.00
H2       0.40931    0.04524    0.30990   1.00
C6       0.27313    -0.05734   0.40037   1.00
C6       0.47205    0.00461    0.32086   1.00
H2       0.36302    0.03044    0.38796   1.00
H2       0.36627    -0.02414   0.32603   1.00
C6       0.19519    -0.08605   0.40229   1.00
C6       0.54070    0.06787    0.31470   1.00
C6       0.28622    -0.11375   0.39203   1.00
C6       0.48292    -0.02799   0.34012   1.00
C6       0.30405    -0.03839   0.42202   1.00
C6       0.45022    -0.04810   0.30335   1.00
H2       0.18421    -0.04709   0.40783   1.00
H2       0.53450    0.09273    0.30133   1.00
H2       0.16951    -0.10433   0.38777   1.00
H2       0.56120    0.10537    0.32687   1.00
H2       0.17227    -0.12888   0.41284   1.00
H2       0.57898    0.05360    0.31115   1.00
H2       0.26606    -0.15732   0.40232   1.00
H2       0.51943    -0.04518   0.33729   1.00
H2       0.26145    -0.13228   0.37738   1.00
H2       0.50283    0.00859    0.35256   1.00
H2       0.34071    -0.09442   0.39013   1.00
H2       0.43503    -0.07184   0.34503   1.00
H2       0.29556    0.00087    0.42871   1.00
H2       0.44255    -0.02730   0.28930   1.00
H2       0.28108    -0.08258   0.43209   1.00
H2       0.48893    -0.06236   0.30046   1.00
H2       0.35890    -0.01904   0.42173   1.00
H2       0.40267    -0.09458   0.30698   1.00
C4       0.87570    0.70807    0.34341   1.00
C4       0.84710    0.65278    0.32929   1.00
C3       0.92132    0.71314    0.35909   1.00
C3       0.86757    0.60268    0.32852   1.00
C3       0.85851    0.76072    0.34203   1.00
C3       0.79611    0.64661    0.31528   1.00
C2       0.93618    0.82158    0.37133   1.00
C2       0.78693    0.53907    0.30144   1.00
C3       0.95096    0.76828    0.37258   1.00
C3       0.83824    0.54733    0.31510   1.00
C3       0.89010    0.81618    0.35599   1.00
C3       0.76725    0.58928    0.30194   1.00
H1       0.93419    0.67662    0.36142   1.00
H1       0.90504    0.60489    0.33755   1.00
C5       0.81067    0.75695    0.32711   1.00
C5       0.77548    0.69704    0.31476   1.00
H1       0.98369    0.76907    0.38350   1.00
H1       0.85504    0.51278    0.31536   1.00
H1       0.87952    0.85482    0.35541   1.00
H1       0.73053    0.58288    0.29186   1.00
C6       0.79852    0.81644    0.32442   1.00
C6       0.71646    0.68605    0.30139   1.00
H2       0.84736    0.86379    0.32474   1.00
H2       0.67550    0.63333    0.30285   1.00
H2       0.78047    0.81773    0.30924   1.00
H2       0.69202    0.71372    0.30699   1.00
C6       0.74733    0.81708    0.34030   1.00
C6       0.73738    0.70604    0.27868   1.00
H2       0.75932    0.80588    0.35538   1.00
H2       0.77051    0.68649    0.27378   1.00
C6       0.74244    0.88349    0.34192   1.00
C6       0.67870    0.68295    0.26272   1.00
H2       0.69666    0.77456    0.33675   1.00
H2       0.76905    0.76151    0.27794   1.00
C6       0.80956    0.94442    0.35009   1.00
C6       0.63767    0.60424    0.26044   1.00
C6       0.72467    0.90312    0.32123   1.00
C6       0.62928    0.70912    0.26825   1.00
C6       0.68477    0.87045    0.35712   1.00
C6       0.71089    0.71336    0.24177   1.00
H2       0.82412    0.93178    0.36454   1.00
H2       0.67129    0.58404    0.25686   1.00
H2       0.85156    0.95911    0.33950   1.00
H2       0.61018    0.57966    0.27430   1.00
H2       0.80409    0.98912    0.35249   1.00
H2       0.60003    0.58892    0.24831   1.00
H2       0.71658    0.94655    0.32281   1.00
H2       0.59149    0.69696    0.25631   1.00
H2       0.76585    0.91737    0.31034   1.00
H2       0.60172    0.68558    0.28221   1.00
H2       0.67834    0.86057    0.31494   1.00
H2       0.65708    0.76429    0.27036   1.00
H2       0.69521    0.85705    0.37208   1.00
H2       0.74579    0.69586    0.23704   1.00
H2       0.67966    0.91563    0.35888   1.00
H2       0.67186    0.69826    0.23005   1.00
H2       0.63570    0.82879    0.35198   1.00
H2       0.73947    0.76898    0.24229   1.00
C4       0.83277    0.12451    0.34334   1.00
C4       0.80619    0.15324    0.32924   1.00
C3       0.79136    0.07633    0.35838   1.00
C3       0.73522    0.13058    0.32779   1.00
C3       0.90339    0.14420    0.34261   1.00
C3       0.85155    0.20664    0.31593   1.00
C2       0.88574    0.06385    0.37123   1.00
C2       0.75272    0.21357    0.30141   1.00
C3       0.81682    0.04660    0.37185   1.00
C3       0.70921    0.15997    0.31439   1.00
C3       0.92723    0.11244    0.35653   1.00
C3       0.82305    0.23547    0.30258   1.00
H1       0.74127    0.06154    0.36025   1.00
H1       0.69969    0.09141    0.33628   1.00
C5       0.94822    0.19460    0.32837   1.00
C5       0.92317    0.22964    0.31609   1.00
H1       0.78425    0.01197    0.38230   1.00
H1       0.65755    0.14150    0.31413   1.00
H1       0.97701    0.12477    0.35638   1.00
H1       0.85372    0.27384    0.29299   1.00
C6       1.02103    0.20958    0.32631   1.00
C6       0.97141    0.29095    0.30350   1.00
H2       1.02138    0.16163    0.32628   1.00
H2       0.95764    0.33044    0.30516   1.00
H2       1.04187    0.22988    0.31141   1.00
H2       1.02282    0.31620    0.30966   1.00
C6       1.06986    0.25975    0.34292   1.00
C6       0.97406    0.27323    0.28066   1.00
H2       1.04486    0.24525    0.35773   1.00
H2       0.92231    0.23935    0.27514   1.00
C6       1.14208    0.26708    0.34512   1.00
C6       1.00995    0.33404    0.26539   1.00
H2       1.07660    0.31013    0.33979   1.00
H2       0.99962    0.24320    0.27988   1.00
C6       1.13741    0.20008    0.35276   1.00
C6       0.97025    0.37307    0.26311   1.00
C6       1.18201    0.28848    0.32485   1.00
C6       1.08432    0.38468    0.27183   1.00
C6       1.18341    0.32341    0.36104   1.00
C6       1.01197    0.30503    0.24422   1.00
H2       1.10851    0.18299    0.36690   1.00
H2       0.91720    0.33851    0.25889   1.00
H2       1.11255    0.15920    0.34169   1.00
H2       0.97043    0.39840    0.27717   1.00
H2       1.18800    0.20707    0.35558   1.00
H2       0.99298    0.41229    0.25142   1.00
H2       1.23396    0.29818    0.32688   1.00
H2       1.11039    0.42415    0.26036   1.00
H2       1.15753    0.24845    0.31348   1.00
H2       1.08562    0.41010    0.28600   1.00
H2       1.18480    0.33478    0.31891   1.00
H2       1.11302    0.35822    0.27395   1.00
H2       1.15771    0.31042    0.37573   1.00
H2       0.96055    0.26941    0.23885   1.00
H2       1.23421    0.33013    0.36321   1.00
H2       1.03623    0.34562    0.23297   1.00
H2       1.18965    0.37239    0.35630   1.00
H2       1.04057    0.27801    0.24475   1.00
C4       0.83081    0.69915    0.84675   1.00
C4       0.80359    0.64089    0.83375   1.00
C3       0.79578    0.73555    0.85069   1.00
C3       0.73653    0.61072    0.82551   1.00
C3       0.89553    0.72270    0.85627   1.00
C3       0.84423    0.61092    0.82866   1.00
C2       0.88425    0.81495    0.87382   1.00
C2       0.74970    0.52512    0.80666   1.00
C3       0.82140    0.79148    0.86389   1.00
C3       0.71042    0.55481    0.81230   1.00
C3       0.91966    0.77962    0.86969   1.00
C3       0.81588    0.55425    0.81506   1.00
H1       0.75063    0.72320    0.84397   1.00
H1       0.70389    0.62780    0.82896   1.00
C5       0.93450    0.68990    0.85222   1.00
C5       0.91106    0.63727    0.83716   1.00
H1       0.79353    0.81537    0.86616   1.00
H1       0.66176    0.53559    0.80681   1.00
H1       0.96524    0.79756    0.87685   1.00
H1       0.84338    0.53186    0.81097   1.00
C6       0.99933    0.71068    0.86404   1.00
C6       0.95619    0.60978    0.82997   1.00
H2       0.99050    0.71632    0.87999   1.00
H2       0.95284    0.60489    0.81350   1.00
H2       1.01125    0.66980    0.86465   1.00
H2       1.00991    0.64666    0.83211   1.00
C6       1.06263    0.77653    0.85550   1.00
C6       0.93966    0.54109    0.84047   1.00
H2       1.04814    0.81479    0.85204   1.00
H2       0.88444    0.50707    0.84100   1.00
C6       1.12837    0.81132    0.86896   1.00
C6       0.97214    0.50030    0.83114   1.00
H2       1.07596    0.76350    0.84090   1.00
H2       0.95567    0.55233    0.85631   1.00
C6       1.11673    0.84129    0.88872   1.00
C6       0.94347    0.47279    0.80968   1.00
C6       1.15348    0.76102    0.87446   1.00
C6       1.05086    0.54427    0.83000   1.00
C6       1.18584    0.87128    0.85681   1.00
C6       0.95405    0.43795    0.84495   1.00
H2       1.09790    0.87620    0.88536   1.00
H2       0.88785    0.44242    0.80991   1.00
H2       1.07982    0.80134    0.89861   1.00
H2       0.95796    0.51411    0.79886   1.00
H2       1.16401    0.86950    0.89731   1.00
H2       0.96280    0.44052    0.80390   1.00
H2       1.20191    0.78696    0.88260   1.00
H2       1.07330    0.51401    0.82485   1.00
H2       1.11686    0.72020    0.88420   1.00
H2       1.06643    0.58637    0.81938   1.00
H2       1.16070    0.73809    0.86082   1.00
H2       1.07225    0.56546    0.84485   1.00
H2       1.17095    0.90875    0.85272   1.00
H2       0.89888    0.40475    0.84609   1.00
H2       1.23280    0.89755    0.86565   1.00
H2       0.97528    0.40752    0.83897   1.00
H2       1.19739    0.85316    0.84285   1.00
H2       0.97415    0.45413    0.86024   1.00
C4       0.29250    0.12382    0.84362   1.00
C4       0.34986    0.15068    0.83027   1.00
C3       0.23170    0.12488    0.83879   1.00
C3       0.34786    0.17387    0.81032   1.00
C3       0.29518    0.09468    0.86260   1.00
C3       0.41199    0.15481    0.83685   1.00
C2       0.17522    0.06650    0.87016   1.00
C2       0.46685    0.20812    0.80361   1.00
C3       0.17466    0.09683    0.85158   1.00
C3       0.40459    0.20204    0.79741   1.00
C3       0.23585    0.06631    0.87514   1.00
C3       0.46871    0.18417    0.82328   1.00
H1       0.22682    0.14669    0.82590   1.00
H1       0.30489    0.17053    0.80435   1.00
C5       0.35601    0.09471    0.86867   1.00
C5       0.41623    0.12964    0.85644   1.00
H1       0.13226    0.09897    0.84719   1.00
H1       0.39993    0.21808    0.78324   1.00
H1       0.23563    0.04472    0.88868   1.00
H1       0.51389    0.18841    0.82746   1.00
C6       0.35567    0.05731    0.88774   1.00
C6       0.48421    0.14093    0.86404   1.00
H2       0.30878    0.00809    0.88823   1.00
H2       0.52360    0.19305    0.86059   1.00
H2       0.39416    0.04205    0.88720   1.00
H2       0.48610    0.14060    0.88051   1.00
C6       0.36579    0.09948    0.90759   1.00
C6       0.50285    0.08765    0.85554   1.00
H2       0.33417    0.12337    0.90691   1.00
H2       0.49160    0.08032    0.83931   1.00
C6       0.35131    0.06089    0.92831   1.00
C6       0.57775    0.10292    0.85864   1.00
H2       0.41836    0.14174    0.90773   1.00
H2       0.46834    0.03842    0.86251   1.00
C6       0.27475    0.00685    0.93073   1.00
C6       0.62951    0.16653    0.84644   1.00
C6       0.39469    0.02587    0.93081   1.00
C6       0.59823    0.11328    0.88133   1.00
C6       0.37044    0.11345    0.94575   1.00
C6       0.58284    0.04100    0.85075   1.00
H2       0.24264    0.02977    0.92872   1.00
H2       0.61583    0.16129    0.83039   1.00
H2       0.25881    -0.03409   0.91968   1.00
H2       0.63167    0.21280    0.85205   1.00
H2       0.26436    -0.01641   0.94576   1.00
H2       0.68088    0.17397    0.84757   1.00
H2       0.38788    0.00329    0.94586   1.00
H2       0.64865    0.11902    0.88347   1.00
H2       0.37995    -0.01490   0.91973   1.00
H2       0.60003    0.15904    0.88730   1.00
H2       0.44875    0.06256    0.92875   1.00
H2       0.56177    0.06979    0.89033   1.00
H2       0.34064    0.13920    0.94482   1.00
H2       0.56954    0.03190    0.83469   1.00
H2       0.36078    0.08881    0.96058   1.00
H2       0.63445    0.04945    0.85247   1.00
H2       0.42434    0.15226    0.94512   1.00
H2       0.54841    -0.00533   0.85907   1.00
C4       0.87566    0.16754    0.84339   1.00
C4       0.84899    0.19796    0.82994   1.00
C3       0.86592    0.10105    0.84011   1.00
C3       0.81703    0.16717    0.81121   1.00
C3       0.91356    0.20423    0.86089   1.00
C3       0.85412    0.26166    0.83516   1.00
C2       0.93241    0.10729    0.87004   1.00
C2       0.79206    0.25777    0.80319   1.00
C3       0.89366    0.07187    0.85295   1.00
C3       0.78909    0.19588    0.79827   1.00
C3       0.94128    0.17285    0.87353   1.00
C3       0.82468    0.28901    0.82162   1.00
H1       0.83773    0.07105    0.82838   1.00
H1       0.81346    0.12306    0.80617   1.00
C5       0.92263    0.27019    0.86546   1.00
C5       0.88827    0.29651    0.85340   1.00
H1       0.88502    0.02383    0.84970   1.00
H1       0.76648    0.17101    0.78501   1.00
H1       0.96891    0.19753    0.88603   1.00
H1       0.82690    0.33397    0.82487   1.00
C6       0.96885    0.31141    0.88277   1.00
C6       0.88696    0.36006    0.85981   1.00
H2       1.01522    0.30812    0.88225   1.00
H2       0.83561    0.35173    0.85770   1.00
H2       0.98891    0.36576    0.88065   1.00
H2       0.89371    0.36826    0.87608   1.00
C6       0.93339    0.28998    0.90404   1.00
C6       0.94152    0.42605    0.84862   1.00
H2       0.90462    0.23437    0.90516   1.00
H2       0.94181    0.41523    0.83247   1.00
C6       0.97990    0.31807    0.92327   1.00
C6       0.93512    0.49153    0.85057   1.00
H2       0.89517    0.30592    0.90476   1.00
H2       0.99172    0.43807    0.85423   1.00
C6       1.02870    0.28883    0.92516   1.00
C6       0.86986    0.48237    0.83999   1.00
C6       1.02229    0.39700    0.92319   1.00
C6       0.93514    0.51155    0.87304   1.00
C6       0.93368    0.29558    0.94240   1.00
C6       0.99743    0.55155    0.83994   1.00
H2       1.00039    0.23314    0.92493   1.00
H2       0.86776    0.46713    0.82417   1.00
H2       1.06554    0.30617    0.91281   1.00
H2       0.82387    0.44368    0.84751   1.00
H2       1.05750    0.30493    0.93931   1.00
H2       0.86827    0.52974    0.84020   1.00
H2       1.05079    0.41623    0.93731   1.00
H2       0.93559    0.55986    0.87420   1.00
H2       1.05907    0.41542    0.91080   1.00
H2       0.88976    0.47306    0.88089   1.00
H2       0.98924    0.41888    0.92145   1.00
H2       0.97988    0.51692    0.88095   1.00
H2       0.90308    0.24008    0.94330   1.00
H2       0.99941    0.54030    0.82393   1.00
H2       0.96392    0.31365    0.95626   1.00
H2       0.99504    0.59846    0.84077   1.00
H2       0.89892    0.31584    0.94216   1.00
H2       1.04512    0.56145    0.84700   1.00
C4       0.03285    0.50270    0.32002   1.00
C4       -0.02440   0.47684    0.33340   1.00
C3       0.04245    0.46022    0.30605   1.00
C3       -0.07954   0.40842    0.33227   1.00
C3       0.08298    0.57361    0.32045   1.00
C3       -0.02753   0.52037    0.34855   1.00
C2       0.14684    0.55553    0.29228   1.00
C2       -0.13859   0.42351    0.36108   1.00
C3       0.09747    0.48576    0.29252   1.00
C3       -0.13478   0.38236    0.34573   1.00
C3       0.13806    0.59765    0.30634   1.00
C3       -0.08449   0.49174    0.36204   1.00
H1       0.01018    0.40901    0.30532   1.00
H1       -0.08197   0.37515    0.32150   1.00
C5       0.07760    0.61837    0.33477   1.00
C5       0.02504    0.59051    0.34988   1.00
H1       0.10134    0.45251    0.28276   1.00
H1       -0.17279   0.33249    0.34417   1.00
H1       0.17446    0.64782    0.30609   1.00
H1       -0.08830   0.52095    0.37310   1.00
C6       0.12689    0.69437    0.33361   1.00
C6       0.02481    0.63395    0.36731   1.00
H2       0.13315    0.71042    0.31780   1.00
H2       0.01311    0.60466    0.38132   1.00
H2       0.10533    0.72347    0.34018   1.00
H2       0.07565    0.67615    0.37045   1.00
C6       0.19720    0.71644    0.34399   1.00
C6       -0.02464   0.66268    0.36384   1.00
H2       0.21461    0.68102    0.33971   1.00
H2       -0.07315   0.62238    0.35782   1.00
C6       0.25699    0.79056    0.33988   1.00
C6       -0.04062   0.69523    0.38248   1.00
H2       0.18865    0.71007    0.36035   1.00
H2       -0.00300   0.70092    0.35183   1.00
C6       0.27984    0.80064    0.31736   1.00
C6       -0.08145   0.64138    0.39905   1.00
C6       0.23734    0.84475    0.34576   1.00
C6       0.02535    0.75382    0.39196   1.00
C6       0.31911    0.80309    0.35302   1.00
C6       -0.08518   0.72548    0.37517   1.00
H2       0.29301    0.76242    0.31263   1.00
H2       -0.12783   0.59874    0.39276   1.00
H2       0.23984    0.79670    0.30732   1.00
H2       -0.05145   0.62097    0.40577   1.00
H2       0.32452    0.85083    0.31494   1.00
H2       -0.09641   0.66354    0.41131   1.00
H2       0.28086    0.89623    0.34421   1.00
H2       0.01345    0.77934    0.40399   1.00
H2       0.19684    0.84121    0.33601   1.00
H2       0.05646    0.73450    0.39860   1.00
H2       0.21968    0.83789    0.36144   1.00
H2       0.05577    0.79176    0.38052   1.00
H2       0.33554    0.76651    0.34931   1.00
H2       -0.13286   0.68596    0.36852   1.00
H2       0.36245    0.85417    0.35057   1.00
H2       -0.09810   0.74847    0.38770   1.00
H2       0.30658    0.79805    0.36915   1.00
H2       -0.05852   0.76490    0.36373   1.00
C4       0.47051    0.96681    0.32015   1.00
C4       0.50183    1.02384    0.33360   1.00
C3       0.42438    0.96141    0.30459   1.00
C3       0.49489    1.08259    0.33111   1.00
C3       0.48522    0.91258    0.32212   1.00
C3       0.54189    1.02302    0.35025   1.00
C2       0.40974    0.85312    0.29229   1.00
C2       0.56236    1.13778    0.36138   1.00
C3       0.39512    0.90653    0.29101   1.00
C3       0.52389    1.13773    0.34461   1.00
C3       0.45466    0.85777    0.30791   1.00
C3       0.57025    1.08004    0.36372   1.00
H1       0.40978    0.99683    0.30267   1.00
H1       0.46906    1.08781    0.31928   1.00
C5       0.52902    0.91377    0.33802   1.00
C5       0.55308    0.96656    0.35305   1.00
H1       0.36246    0.90577    0.28007   1.00
H1       0.51678    1.17847    0.34202   1.00
H1       0.46424    0.81850    0.30874   1.00
H1       0.59865    1.08112    0.37581   1.00
C6       0.54988    0.85984    0.33861   1.00
C6       0.58938    0.96303    0.37190   1.00
H2       0.56306    0.85213    0.32332   1.00
H2       0.56986    0.97711    0.38504   1.00
H2       0.59793    0.87772    0.34655   1.00
H2       0.57545    0.91085    0.37557   1.00
C6       0.49458    0.79116    0.34842   1.00
C6       0.66898    1.00728    0.37036   1.00
H2       0.44421    0.77784    0.34260   1.00
H2       0.68311    1.05703    0.36385   1.00
C6       0.50358    0.72737    0.34581   1.00
C6       0.71104    1.01975    0.39033   1.00
H2       0.49278    0.80015    0.36463   1.00
H2       0.68604    0.98295    0.35934   1.00
C6       0.49576    0.70434    0.32333   1.00
C6       0.69790    1.06384    0.40568   1.00
C6       0.57355    0.74109    0.35391   1.00
C6       0.69504    0.95177    0.40059   1.00
C6       0.44699    0.66740    0.35818   1.00
C6       0.78810    1.05914    0.38492   1.00
H2       0.44729    0.69531    0.31706   1.00
H2       0.70768    1.11177    0.39879   1.00
H2       0.53655    0.74254    0.31395   1.00
H2       0.64546    1.03735    0.41111   1.00
H2       0.49738    0.65717    0.32186   1.00
H2       0.73091    1.07621    0.41893   1.00
H2       0.57735    0.69493    0.35336   1.00
H2       0.72808    0.96091    0.41367   1.00
H2       0.61515    0.77974    0.34482   1.00
H2       0.64249    0.92412    0.40596   1.00
H2       0.58095    0.75878    0.36959   1.00
H2       0.70250    0.91914    0.38997   1.00
H2       0.39639    0.65513    0.35291   1.00
H2       0.80228    1.10802    0.37781   1.00
H2       0.45085    0.62142    0.35672   1.00
H2       0.81968    1.06949    0.39843   1.00
H2       0.45066    0.68005    0.37427   1.00
H2       0.80088    1.02995    0.37442   1.00
C4       0.49635    0.52951    0.32014   1.00
C4       0.52207    0.49819    0.33359   1.00
C3       0.53717    0.57589    0.30464   1.00
C3       0.58788    0.50539    0.33115   1.00
C3       0.42732    0.51456    0.32206   1.00
C3       0.48107    0.45786    0.35019   1.00
C2       0.44343    0.59030    0.29229   1.00
C2       0.57547    0.43765    0.36136   1.00
C3       0.51154    0.60515    0.29106   1.00
C3       0.61401    0.47638    0.34465   1.00
C3       0.40308    0.54514    0.30785   1.00
C3       0.50972    0.42950    0.36365   1.00
H1       0.58725    0.59067    0.30277   1.00
H1       0.61903    0.53142    0.31936   1.00
C5       0.38460    0.47050    0.33790   1.00
C5       0.41330    0.44642    0.35293   1.00
H1       0.54352    0.63800    0.28017   1.00
H1       0.66196    0.48368    0.34210   1.00
H1       0.35416    0.53538    0.30864   1.00
H1       0.48232    0.40091    0.37571   1.00
C6       0.30974    0.44940    0.33842   1.00
C6       0.37331    0.40982    0.37173   1.00
H2       0.28904    0.43634    0.32311   1.00
H2       0.40675    0.42927    0.38490   1.00
H2       0.27961    0.40123    0.34631   1.00
H2       0.33490    0.42354    0.37538   1.00
C6       0.29602    0.50443    0.34826   1.00
C6       0.33820    0.33025    0.37011   1.00
H2       0.33302    0.55491    0.34250   1.00
H2       0.37401    0.31635    0.36362   1.00
C6       0.22317    0.49521    0.34559   1.00
C6       0.30848    0.28793    0.39004   1.00
H2       0.30664    0.50608    0.36448   1.00
H2       0.29693    0.31320    0.35905   1.00
C6       0.20816    0.50322    0.32311   1.00
C6       0.36559    0.30107    0.40543   1.00
C6       0.16698    0.42507    0.35360   1.00
C6       0.25623    0.30359    0.40027   1.00
C6       0.21943    0.55155    0.35800   1.00
C6       0.27109    0.21094    0.38455   1.00
H2       0.24756    0.55182    0.31690   1.00
H2       0.40393    0.29154    0.39857   1.00
H2       0.20583    0.46261    0.31369   1.00
H2       0.39133    0.35345    0.41091   1.00
H2       0.15930    0.50144    0.32160   1.00
H2       0.34488    0.26790    0.41865   1.00
H2       0.11694    0.42110    0.35302   1.00
H2       0.23224    0.27037    0.41331   1.00
H2       0.16428    0.38364    0.34449   1.00
H2       0.28092    0.35607    0.40569   1.00
H2       0.17712    0.41754    0.36929   1.00
H2       0.21621    0.29612    0.38961   1.00
H2       0.25771    0.60225    0.35279   1.00
H2       0.30598    0.19699    0.37745   1.00
H2       0.16952    0.54752    0.35651   1.00
H2       0.24978    0.17918    0.39802   1.00
H2       0.22825    0.54773    0.37410   1.00
H2       0.22921    0.19815    0.37401   1.00
C4       0.16227    0.29986    0.15359   1.00
C4       0.19171    0.35844    0.16648   1.00
C3       0.09225    0.24844    0.15486   1.00
C3       0.15184    0.37333    0.18003   1.00
C3       0.20370    0.29149    0.13880   1.00
C3       0.26367    0.40451    0.16599   1.00
C2       0.10189    0.18307    0.12687   1.00
C2       0.25159    0.47507    0.19327   1.00
C3       0.06279    0.19197    0.14186   1.00
C3       0.18078    0.42963    0.19310   1.00
C3       0.17164    0.23343    0.12578   1.00
C3       0.29119    0.46105    0.17963   1.00
H1       0.06019    0.24975    0.16542   1.00
H1       0.10020    0.34419    0.18076   1.00
C5       0.27515    0.34007    0.13737   1.00
C5       0.30608    0.39378    0.15207   1.00
H1       0.01193    0.15682    0.14350   1.00
H1       0.14928    0.43740    0.20257   1.00
H1       0.19930    0.22596    0.11498   1.00
H1       0.34217    0.49467    0.17982   1.00
C6       0.31675    0.33450    0.12028   1.00
C6       0.38282    0.43868    0.15321   1.00
H2       0.28790    0.32348    0.10620   1.00
H2       0.39855    0.44534    0.16906   1.00
H2       0.36139    0.38347    0.11685   1.00
H2       0.40883    0.41320    0.14711   1.00
C6       0.33996    0.28103    0.12452   1.00
C6       0.40995    0.50889    0.14218   1.00
H2       0.29731    0.23459    0.13082   1.00
H2       0.37756    0.53039    0.14600   1.00
C6       0.36984    0.25990    0.10632   1.00
C6       0.48576    0.56516    0.14613   1.00
H2       0.37821    0.30143    0.13656   1.00
H2       0.40327    0.49899    0.12588   1.00
C6       0.31509    0.22044    0.08985   1.00
C6       0.49713    0.59020    0.16845   1.00
C6       0.43146    0.32260    0.09651   1.00
C6       0.53589    0.53961    0.14088   1.00
C6       0.39489    0.21174    0.11437   1.00
C6       0.50310    0.62741    0.13237   1.00
H2       0.27039    0.17644    0.09636   1.00
H2       0.46171    0.60756    0.17274   1.00
H2       0.29820    0.25270    0.08263   1.00
H2       0.48990    0.54992    0.17892   1.00
H2       0.33508    0.20185    0.07792   1.00
H2       0.54883    0.63262    0.17071   1.00
H2       0.45492    0.30694    0.08480   1.00
H2       0.58872    0.58063    0.14229   1.00
H2       0.41571    0.35593    0.08936   1.00
H2       0.52899    0.49874    0.15107   1.00
H2       0.47017    0.35209    0.10787   1.00
H2       0.52797    0.52035    0.12536   1.00
H2       0.35305    0.16616    0.12128   1.00
H2       0.46953    0.64792    0.13562   1.00
H2       0.41585    0.19518    0.10216   1.00
H2       0.55553    0.66836    0.13468   1.00
H2       0.43469    0.23720    0.12578   1.00
H2       0.49736    0.61327    0.11636   1.00
C4       0.70743    0.87623    0.15635   1.00
C4       0.65217    0.84804    0.17048   1.00
C3       0.70766    0.91322    0.13884   1.00
C3       0.59678    0.86092    0.16926   1.00
C3       0.76503    0.86749    0.15961   1.00
C3       0.65148    0.80532    0.18656   1.00
C2       0.82062    0.93611    0.12831   1.00
C2       0.53872    0.78838    0.19844   1.00
C3       0.76260    0.94259    0.12528   1.00
C3       0.54157    0.83179    0.18273   1.00
C3       0.82011    0.89853    0.14550   1.00
C3       0.59412    0.77635    0.19989   1.00
H1       0.66761    0.91964    0.13517   1.00
H1       0.59480    0.89249    0.15866   1.00
C5       0.76647    0.82833    0.17650   1.00
C5       0.70719    0.79281    0.18908   1.00
H1       0.75976    0.96888    0.11298   1.00
H1       0.50307    0.84287    0.18099   1.00
H1       0.86215    0.89384    0.14738   1.00
H1       0.59156    0.74534    0.21143   1.00
C6       0.83066    0.82561    0.18097   1.00
C6       0.70241    0.74182    0.20478   1.00
H2       0.87468    0.87664    0.17942   1.00
H2       0.65181    0.69674    0.20409   1.00
H2       0.83379    0.81473    0.19687   1.00
H2       0.73474    0.72064    0.20094   1.00
C6       0.83801    0.77246    0.16757   1.00
C6       0.72032    0.77213    0.22677   1.00
H2       0.82515    0.77653    0.15184   1.00
H2       0.69553    0.80211    0.22970   1.00
C6       0.90873    0.77573    0.16759   1.00
C6       0.70267    0.72089    0.24477   1.00
H2       0.79921    0.72156    0.17250   1.00
H2       0.77498    0.80870    0.22722   1.00
C6       0.96508    0.84246    0.15772   1.00
C6       0.62454    0.67385    0.24724   1.00
C6       0.93104    0.76947    0.18932   1.00
C6       0.73645    0.67644    0.24209   1.00
C6       0.90242    0.71511    0.15487   1.00
C6       0.73025    0.76228    0.26471   1.00
H2       0.95038    0.84895    0.14246   1.00
H2       0.59903    0.70371    0.24884   1.00
H2       0.97518    0.88708    0.16661   1.00
H2       0.60233    0.64018    0.23424   1.00
H2       1.01299    0.84215    0.15652   1.00
H2       0.61262    0.64162    0.26066   1.00
H2       0.97790    0.76689    0.18903   1.00
H2       0.72789    0.64440    0.25539   1.00
H2       0.94076    0.81339    0.19853   1.00
H2       0.71536    0.64279    0.22901   1.00
H2       0.89160    0.72359    0.19677   1.00
H2       0.79135    0.70834    0.23989   1.00
H2       0.88743    0.71751    0.13929   1.00
H2       0.70740    0.79410    0.26744   1.00
H2       0.95077    0.71544    0.15432   1.00
H2       0.71874    0.72864    0.27778   1.00
H2       0.86429    0.66638    0.16133   1.00
H2       0.78548    0.79554    0.26407   1.00
C4       0.12451    0.83277    0.15666   1.00
C4       0.15324    0.80619    0.17076   1.00
C3       0.07634    0.79136    0.14161   1.00
C3       0.13058    0.73522    0.17221   1.00
C3       0.14419    0.90338    0.15739   1.00
C3       0.20663    0.85155    0.18407   1.00
C2       0.06385    0.88574    0.12877   1.00
C2       0.21357    0.75272    0.19859   1.00
C3       0.04661    0.81683    0.12815   1.00
C3       0.15997    0.70921    0.18561   1.00
C3       0.11244    0.92723    0.14348   1.00
C3       0.23546    0.82305    0.19742   1.00
H1       0.06155    0.74127    0.13974   1.00
H1       0.09142    0.69969    0.16372   1.00
C5       0.19459    0.94822    0.17164   1.00
C5       0.22963    0.92317    0.18391   1.00
H1       0.01198    0.78426    0.11770   1.00
H1       0.14151    0.65755    0.18586   1.00
H1       0.12476    0.97700    0.14362   1.00
H1       0.27383    0.85372    0.20701   1.00
C6       0.20956    1.02102    0.17370   1.00
C6       0.29093    0.97140    0.19650   1.00
H2       0.16161    1.02137    0.17373   1.00
H2       0.33043    0.95764    0.19485   1.00
H2       0.22985    1.04186    0.18859   1.00
H2       0.31618    1.02282    0.19035   1.00
C6       0.25973    1.06986    0.15708   1.00
C6       0.27320    0.97404    0.21935   1.00
H2       0.24524    1.04487    0.14228   1.00
H2       0.23933    0.92230    0.22487   1.00
C6       0.26705    1.14207    0.15489   1.00
C6       0.33401    1.00994    0.23462   1.00
H2       0.31012    1.07660    0.16022   1.00
H2       0.24317    0.99960    0.22012   1.00
C6       0.20006    1.13740    0.14724   1.00
C6       0.37305    0.97024    0.23690   1.00
C6       0.28845    1.18200    0.17516   1.00
C6       0.38464    1.08431    0.22818   1.00
C6       0.32339    1.18341    0.13897   1.00
C6       0.30499    1.01195    0.25579   1.00
H2       0.18297    1.10851    0.13311   1.00
H2       0.33849    0.91719    0.24112   1.00
H2       0.15918    1.11254    0.15832   1.00
H2       0.39838    0.97043    0.22284   1.00
H2       0.20705    1.18799    0.14442   1.00
H2       0.41226    0.99297    0.24859   1.00
H2       0.29815    1.23395    0.17313   1.00
H2       0.42411    1.11038    0.23965   1.00
H2       0.24841    1.15751    0.18653   1.00
H2       0.41007    1.08562    0.21401   1.00
H2       0.33475    1.18479    0.18110   1.00
H2       0.35819    1.11300    0.22606   1.00
H2       0.31041    1.15772    0.12428   1.00
H2       0.26937    0.96052    0.26115   1.00
H2       0.33010    1.23421    0.13680   1.00
H2       0.34558    1.03621    0.26704   1.00
H2       0.37237    1.18966    0.14371   1.00
H2       0.27796    1.04054    0.25526   1.00
C4       0.96724    0.49764    0.68001   1.00
C4       1.02565    0.52757    0.66705   1.00
C3       0.92505    0.42571    0.68221   1.00
C3       1.05006    0.48810    0.65708   1.00
C3       0.94952    0.54049    0.69129   1.00
C3       1.06173    0.59966    0.66380   1.00
C2       0.85106    0.43709    0.70696   1.00
C2       1.14176    0.58761    0.64007   1.00
C3       0.86892    0.39625    0.69534   1.00
C3       1.10611    0.51703    0.64391   1.00
C3       0.89217    0.50846    0.70458   1.00
C3       1.11834    0.62708    0.65019   1.00
H1       0.93313    0.39202    0.67420   1.00
H1       1.02843    0.43694    0.65917   1.00
C5       0.98837    0.61318    0.68906   1.00
C5       1.04131    0.64239    0.67408   1.00
H1       0.84069    0.34404    0.69630   1.00
H1       1.12101    0.48576    0.63712   1.00
H1       0.87826    0.53723    0.71295   1.00
H1       1.14499    0.67804    0.64738   1.00
C6       0.97353    0.65808    0.70266   1.00
C6       1.07531    0.71746    0.66885   1.00
H2       0.96638    0.63892    0.71815   1.00
H2       1.08033    0.72331    0.65243   1.00
H2       1.01779    0.70870    0.70430   1.00
H2       1.04248    0.73845    0.67221   1.00
C6       0.91149    0.66504    0.69526   1.00
C6       1.14549    0.76152    0.67981   1.00
H2       0.86972    0.61500    0.69075   1.00
H2       1.17511    0.73550    0.67901   1.00
C6       0.88200    0.69726    0.71032   1.00
C6       1.19209    0.83644    0.67223   1.00
H2       0.92688    0.69544    0.68138   1.00
H2       1.13521    0.76313    0.69593   1.00
C6       0.84890    0.65125    0.72914   1.00
C6       1.21817    0.83848    0.65034   1.00
C6       0.93755    0.76909    0.71741   1.00
C6       1.15463    0.87789    0.67305   1.00
C6       0.82555    0.70469    0.69923   1.00
C6       1.25540    0.87198    0.68632   1.00
H2       0.81019    0.59979    0.72464   1.00
H2       1.24391    0.80872    0.64917   1.00
H2       0.88664    0.64722    0.73836   1.00
H2       1.17653    0.81805    0.63941   1.00
H2       0.82437    0.67176    0.73884   1.00
H2       1.25430    0.89064    0.64572   1.00
H2       0.91553    0.79307    0.72672   1.00
H2       1.18899    0.93124    0.66913   1.00
H2       0.97623    0.76623    0.72650   1.00
H2       1.11228    0.85779    0.66235   1.00
H2       0.96265    0.80211    0.70442   1.00
H2       1.13451    0.87609    0.68821   1.00
H2       0.78460    0.65518    0.69409   1.00
H2       1.28415    0.84506    0.68613   1.00
H2       0.80302    0.72662    0.70920   1.00
H2       1.28981    0.92444    0.68154   1.00
H2       0.84609    0.73782    0.68600   1.00
H2       1.24037    0.87339    0.70196   1.00
C4       0.52970    0.03307    0.67990   1.00
C4       0.50090    -0.02544   0.66698   1.00
C3       0.50501    0.07989    0.68036   1.00
C3       0.44106    -0.04512   0.65523   1.00
C3       0.58541    0.04611    0.69293   1.00
C3       0.53241    -0.06649   0.66559   1.00
C2       0.58569    0.14956    0.70673   1.00
C2       0.44452    -0.14181   0.64009   1.00
C3       0.53183    0.13620    0.69342   1.00
C3       0.41383    -0.10130   0.64212   1.00
C3       0.61103    0.10381    0.70609   1.00
C3       0.50329    -0.12306   0.65196   1.00
H1       0.46706    0.07522    0.67107   1.00
H1       0.41462    -0.01977   0.65593   1.00
C5       0.61431    0.00239    0.69253   1.00
C5       0.59109    -0.05089   0.67768   1.00
H1       0.51160    0.16790    0.69308   1.00
H1       0.37071    -0.11265   0.63400   1.00
H1       0.65030    0.11449    0.71568   1.00
H1       0.52452    -0.15318   0.65045   1.00
C6       0.66830    0.01254    0.70790   1.00
C6       0.62815    -0.09027   0.67447   1.00
H2       0.65319    0.02138    0.72278   1.00
H2       0.63316    -0.09587   0.65824   1.00
H2       0.66959    -0.03421   0.71048   1.00
H2       0.68120    -0.06098   0.67914   1.00
C6       0.74156    0.07071    0.70192   1.00
C6       0.59361    -0.16088   0.68561   1.00
H2       0.73903    0.11498    0.69646   1.00
H2       0.53842    -0.18661   0.68337   1.00
C6       0.79840    0.09599    0.71856   1.00
C6       0.61808    -0.21226   0.67982   1.00
H2       0.75824    0.05302    0.68888   1.00
H2       0.60122    -0.15098   0.70189   1.00
C6       0.78397    0.13204    0.73629   1.00
C6       0.59914    -0.23760   0.65764   1.00
C6       0.80643    0.03664    0.72709   1.00
C6       0.69601    -0.18051   0.68277   1.00
C6       0.86734    0.14874    0.70882   1.00
C6       0.58174    -0.27548   0.69391   1.00
H2       0.77692    0.17354    0.73073   1.00
H2       0.54455    -0.25931   0.65497   1.00
H2       0.73825    0.09672    0.74463   1.00
H2       0.62630    -0.19632   0.64682   1.00
H2       0.82611    0.15360    0.74710   1.00
H2       0.61214    -0.27687   0.65419   1.00
H2       0.84934    0.05548    0.73760   1.00
H2       0.71178    -0.21820   0.68010   1.00
H2       0.76086    0.00031    0.73533   1.00
H2       0.72415    -0.13859   0.67220   1.00
H2       0.81522    0.00949    0.71486   1.00
H2       0.71091    -0.16097   0.69816   1.00
H2       0.86464    0.19218    0.70273   1.00
H2       0.52643    -0.30029   0.69226   1.00
H2       0.90867    0.16828    0.71991   1.00
H2       0.59687    -0.31315   0.69036   1.00
H2       0.88105    0.12592    0.69644   1.00
H2       0.59423    -0.26107   0.70980   1.00
C4       0.50332    0.47028    0.67990   1.00
C4       0.47360    0.49906    0.66698   1.00
C3       0.57487    0.49518    0.68043   1.00
C3       0.51375    0.55908    0.65531   1.00
C3       0.46062    0.41436    0.69287   1.00
C3       0.40104    0.46736    0.66552   1.00
C2       0.56382    0.41430    0.70674   1.00
C2       0.41361    0.55543    0.64009   1.00
C3       0.60435    0.46836    0.69350   1.00
C3       0.48480    0.58630    0.64219   1.00
C3       0.49270    0.38875    0.70603   1.00
C3       0.37359    0.49648    0.65189   1.00
H1       0.60818    0.53329    0.67119   1.00
H1       0.56553    0.58565    0.65605   1.00
C5       0.38798    0.38525    0.69240   1.00
C5       0.35795    0.40849    0.67754   1.00
H1       0.65631    0.48875    0.69321   1.00
H1       0.51656    0.62955    0.63412   1.00
H1       0.46410    0.34934    0.71557   1.00
H1       0.32225    0.47512    0.65033   1.00
C6       0.34409    0.33103    0.70770   1.00
C6       0.28155    0.37126    0.67425   1.00
H2       0.36784    0.34602    0.72260   1.00
H2       0.27113    0.36641    0.65801   1.00
H2       0.29593    0.32953    0.71024   1.00
H2       0.25789    0.31816    0.67887   1.00
C6       0.32931    0.25792    0.70166   1.00
C6       0.24517    0.40548    0.68539   1.00
H2       0.37624    0.26067    0.69623   1.00
H2       0.27450    0.46070    0.68321   1.00
C6       0.29770    0.20087    0.71824   1.00
C6       0.16933    0.38084    0.67954   1.00
H2       0.29509    0.24129    0.68859   1.00
H2       0.24729    0.39770    0.70167   1.00
C6       0.34802    0.21526    0.73602   1.00
C6       0.16311    0.39998    0.65736   1.00
C6       0.23013    0.19251    0.72672   1.00
C6       0.12332    0.30285    0.68240   1.00
C6       0.28185    0.13211    0.70845   1.00
C6       0.14210    0.41685    0.69363   1.00
H2       0.39669    0.22253    0.73050   1.00
H2       0.19588    0.45462    0.65475   1.00
H2       0.35816    0.26083    0.74440   1.00
H2       0.17749    0.37305    0.64653   1.00
H2       0.32743    0.17299    0.74678   1.00
H2       0.11083    0.38685    0.65387   1.00
H2       0.20605    0.14947    0.73718   1.00
H2       0.06985    0.28695    0.67968   1.00
H2       0.23912    0.23794    0.73500   1.00
H2       0.13735    0.27493    0.67182   1.00
H2       0.19430    0.18375    0.71446   1.00
H2       0.12785    0.28782    0.69778   1.00
H2       0.32813    0.13504    0.70239   1.00
H2       0.17247    0.47219    0.69204   1.00
H2       0.26004    0.09065    0.71949   1.00
H2       0.08931    0.40160    0.69003   1.00
H2       0.24544    0.11843    0.69602   1.00
H2       0.14389    0.40421    0.70951   1.00
C4       0.50604    0.04264    0.17631   1.00
C4       0.47712    -0.01304   0.16234   1.00
C3       0.57106    0.06625    0.18546   1.00
C3       0.51405    -0.04427   0.15492   1.00
C3       0.46919    0.07655    0.18154   1.00
C3       0.40875    -0.03909   0.15533   1.00
C2       0.56604    0.15738    0.20381   1.00
C2       0.41757    -0.12781   0.13485   1.00
C3       0.60040    0.12206    0.19871   1.00
C3       0.48519    -0.10012   0.14167   1.00
C3       0.50104    0.13342    0.19501   1.00
C3       0.38112    -0.09627   0.14194   1.00
H1       0.59925    0.04335    0.18300   1.00
H1       0.56353    -0.02717   0.15869   1.00
C5       0.40229    0.05329    0.17348   1.00
C5       0.37001    -0.00794   0.16161   1.00
H1       0.64759    0.13675    0.20474   1.00
H1       0.51443    -0.12051   0.13694   1.00
H1       0.47665    0.15913    0.19898   1.00
H1       0.33253    -0.11653   0.13674   1.00
C6       0.36700    0.09401    0.17741   1.00
C6       0.29549    -0.04045   0.15582   1.00
H2       0.40357    0.14804    0.17538   1.00
H2       0.27109    -0.09539   0.15806   1.00
H2       0.32960    0.08533    0.16574   1.00
H2       0.26734    -0.02688   0.16638   1.00
C6       0.33155    0.07933    0.19870   1.00
C6       0.28424    -0.02228   0.13375   1.00
H2       0.36566    0.07818    0.21023   1.00
H2       0.31975    -0.02634   0.12339   1.00
C6       0.30677    0.12886    0.20626   1.00
C6       0.21095    -0.06448   0.12452   1.00
H2       0.28769    0.02767    0.19837   1.00
H2       0.29880    0.03157    0.13358   1.00
C6       0.36748    0.20154    0.21029   1.00
C6       0.19048    -0.14017   0.12118   1.00
C6       0.25719    0.13321    0.19095   1.00
C6       0.15684    -0.06109   0.13808   1.00
C6       0.26810    0.10119    0.22662   1.00
C6       0.21028    -0.03388   0.10350   1.00
H2       0.40403    0.20009    0.22080   1.00
H2       0.22828    -0.14428   0.11193   1.00
H2       0.39452    0.22577    0.19634   1.00
H2       0.18583    -0.16608   0.13551   1.00
H2       0.35005    0.23437    0.21688   1.00
H2       0.14140    -0.16803   0.11346   1.00
H2       0.23644    0.16395    0.19701   1.00
H2       0.10680    -0.08654   0.13083   1.00
H2       0.28315    0.15675    0.17679   1.00
H2       0.15189    -0.08620   0.15260   1.00
H2       0.21467    0.08253    0.18753   1.00
H2       0.17078    -0.00828   0.14102   1.00
H2       0.30115    0.09778    0.23806   1.00
H2       0.24720    -0.03570   0.09325   1.00
H2       0.25013    0.13439    0.23260   1.00
H2       0.16016    -0.06199   0.09637   1.00
H2       0.22376    0.05044    0.22468   1.00
H2       0.22301    0.01923    0.10491   1.00
C4       0.96623    0.47124    0.17964   1.00
C4       1.02296    0.50239    0.16607   1.00
C3       0.96592    0.43409    0.19712   1.00
C3       1.08590    0.50474    0.17016   1.00
C3       0.90707    0.47683    0.17580   1.00
C3       1.01750    0.53270    0.14766   1.00
C2       0.85289    0.41105    0.20763   1.00
C2       1.13659    0.56241    0.13818   1.00
C3       0.91120    0.40516    0.21077   1.00
C3       1.14092    0.53350    0.15662   1.00
C3       0.85257    0.44696    0.19013   1.00
C3       1.07459    0.56113    0.13422   1.00
H1       1.00518    0.42607    0.20049   1.00
H1       1.09435    0.48625    0.18322   1.00
C5       0.90323    0.51114    0.15799   1.00
C5       0.95645    0.53445    0.14312   1.00
H1       0.91423    0.37924    0.22314   1.00
H1       1.18483    0.53334    0.16041   1.00
H1       0.80985    0.45027    0.18799   1.00
H1       1.07249    0.58273    0.12092   1.00
C6       0.84356    0.52299    0.15524   1.00
C6       0.94867    0.56008    0.12264   1.00
H2       0.83327    0.54002    0.16958   1.00
H2       0.96644    0.53889    0.11088   1.00
H2       0.85660    0.56650    0.14548   1.00
H2       0.89537    0.53894    0.11854   1.00
C6       0.77826    0.45919    0.14665   1.00
C6       0.98528    0.63981    0.12135   1.00
H2       0.77041    0.41332    0.15452   1.00
H2       1.03589    0.66193    0.12821   1.00
C6       0.70959    0.46005    0.14741   1.00
C6       0.99371    0.67243    0.09985   1.00
H2       0.78850    0.45243    0.13088   1.00
H2       0.95705    0.65657    0.13092   1.00
C6       0.68554    0.45852    0.16954   1.00
C6       1.04248    0.66022    0.08623   1.00
C6       0.71543    0.52313    0.13636   1.00
C6       0.92418    0.64474    0.08896   1.00
C6       0.65374    0.39522    0.13654   1.00
C6       1.02540    0.75068    0.10240   1.00
H2       0.68197    0.41514    0.17786   1.00
H2       1.09172    0.67823    0.09364   1.00
H2       0.72047    0.50476    0.17773   1.00
H2       1.02131    0.60634    0.08278   1.00
H2       0.63541    0.45434    0.16989   1.00
H2       1.05176    0.68710    0.07181   1.00
H2       0.66611    0.52073    0.13572   1.00
H2       0.93002    0.67129    0.07464   1.00
H2       0.75074    0.57007    0.14423   1.00
H2       0.90179    0.59062    0.08554   1.00
H2       0.73367    0.52621    0.12087   1.00
H2       0.88840    0.65141    0.09841   1.00
H2       0.64705    0.34906    0.14390   1.00
H2       1.07507    0.77296    0.10984   1.00
H2       0.60458    0.39326    0.13679   1.00
H2       1.03273    0.77588    0.08774   1.00
H2       0.66714    0.39403    0.12070   1.00
H2       0.99259    0.76266    0.11155   1.00
C4       0.52953    0.49638    0.17986   1.00
C4       0.49821    0.52210    0.16641   1.00
C3       0.57608    0.53726    0.19532   1.00
C3       0.50559    0.58800    0.16882   1.00
C3       0.51440    0.42728    0.17799   1.00
C3       0.45769    0.48101    0.14986   1.00
C2       0.59033    0.44346    0.20771   1.00
C2       0.43765    0.57550    0.13864   1.00
C3       0.60535    0.51163    0.20890   1.00
C3       0.47657    0.61413    0.15532   1.00
C3       0.54499    0.40304    0.19219   1.00
C3       0.42932    0.50967    0.13639   1.00
H1       0.59099    0.58738    0.19716   1.00
H1       0.53176    0.61922    0.18058   1.00
C5       0.47015    0.38449    0.16219   1.00
C5       0.44605    0.41316    0.14715   1.00
H1       0.63833    0.54366    0.21976   1.00
H1       0.48402    0.66214    0.15785   1.00
H1       0.53511    0.35408    0.19143   1.00
H1       0.40060    0.48220    0.12437   1.00
C6       0.44887    0.30958    0.16171   1.00
C6       0.40924    0.37306    0.12839   1.00
H2       0.43591    0.28902    0.17704   1.00
H2       0.42864    0.40638    0.11520   1.00
H2       0.40063    0.27947    0.15387   1.00
H2       0.42281    0.33453    0.12476   1.00
C6       0.50371    0.29561    0.15186   1.00
C6       0.32970    0.33813    0.13007   1.00
H2       0.55428    0.33258    0.15757   1.00
H2       0.31596    0.37407    0.13655   1.00
C6       0.49434    0.22272    0.15457   1.00
C6       0.28719    0.30831    0.11018   1.00
H2       0.50526    0.30611    0.13564   1.00
H2       0.31265    0.29694    0.14116   1.00
C6       0.50249    0.20785    0.17705   1.00
C6       0.30034    0.36533    0.09475   1.00
C6       0.42408    0.16657    0.14662   1.00
C6       0.30261    0.25587    0.09997   1.00
C6       0.55049    0.21872    0.14213   1.00
C6       0.21025    0.27112    0.11572   1.00
H2       0.55118    0.24723    0.18322   1.00
H2       0.29098    0.40381    0.10160   1.00
H2       0.46200    0.20570    0.18649   1.00
H2       0.35267    0.39092    0.08923   1.00
H2       0.50059    0.15895    0.17859   1.00
H2       0.26705    0.34457    0.08156   1.00
H2       0.41999    0.11648    0.14723   1.00
H2       0.26926    0.23183    0.08696   1.00
H2       0.38277    0.16405    0.15576   1.00
H2       0.35504    0.28040    0.09451   1.00
H2       0.41645    0.17661    0.13093   1.00
H2       0.29513    0.21591    0.11065   1.00
H2       0.60127    0.25695    0.14730   1.00
H2       0.19647    0.30616    0.12281   1.00
H2       0.54635    0.16877    0.14365   1.00
H2       0.17836    0.24975    0.10228   1.00
H2       0.54656    0.22742    0.12603   1.00
H2       0.19745    0.22931    0.12629   1.00
C4       0.70935    0.83906    0.65704   1.00
C4       0.65361    0.81004    0.67100   1.00
C3       0.73477    0.90531    0.64857   1.00
C3       0.62415    0.84779    0.67908   1.00
C3       0.74144    0.80107    0.65114   1.00
C3       0.62569    0.74070    0.67730   1.00
C2       0.82420    0.89916    0.62959   1.00
C2       0.53874    0.75041    0.69845   1.00
C3       0.79064    0.93469    0.63534   1.00
C3       0.56825    0.81891    0.69231   1.00
C3       0.79844    0.83298    0.63772   1.00
C3       0.56852    0.71310    0.69071   1.00
H1       0.71321    0.93445    0.65154   1.00
H1       0.64263    0.89789    0.67582   1.00
C5       0.71631    0.73302    0.65850   1.00
C5       0.65501    0.70099    0.67035   1.00
H1       0.80668    0.98278    0.62982   1.00
H1       0.54918    0.84878    0.69754   1.00
H1       0.82289    0.80778    0.63329   1.00
H1       0.54696    0.66386    0.69542   1.00
C6       0.75514    0.69624    0.65387   1.00
C6       0.62053    0.62575    0.67540   1.00
H2       0.80946    0.73136    0.65602   1.00
H2       0.56572    0.60306    0.67320   1.00
H2       0.74532    0.65727    0.66511   1.00
H2       0.63295    0.59785    0.66440   1.00
C6       0.73958    0.66303    0.63224   1.00
C6       0.63794    0.61133    0.69720   1.00
H2       0.73964    0.69896    0.62116   1.00
H2       0.63512    0.64642    0.70802   1.00
C6       0.78744    0.63702    0.62406   1.00
C6       0.59397    0.53730    0.70576   1.00
H2       0.68733    0.62016    0.63235   1.00
H2       0.69135    0.62430    0.69721   1.00
C6       0.86092    0.69670    0.62034   1.00
C6       0.51889    0.51867    0.70933   1.00
C6       0.79000    0.58485    0.63870   1.00
C6       0.59551    0.48369    0.69151   1.00
C6       0.75900    0.60087    0.60340   1.00
C6       0.62396    0.53332    0.72657   1.00
H2       0.86077    0.73500    0.61031   1.00
H2       0.51610    0.55620    0.71908   1.00
H2       0.88561    0.72184    0.63446   1.00
H2       0.49331    0.51636    0.69512   1.00
H2       0.89261    0.67860    0.61332   1.00
H2       0.48983    0.46891    0.71660   1.00
H2       0.81952    0.56341    0.63220   1.00
H2       0.56879    0.43293    0.69829   1.00
H2       0.81397    0.60891    0.65303   1.00
H2       0.57071    0.48108    0.67710   1.00
H2       0.73875    0.54299    0.64191   1.00
H2       0.64789    0.49641    0.68841   1.00
H2       0.75680    0.63579    0.59241   1.00
H2       0.62339    0.56977    0.73729   1.00
H2       0.79104    0.58215    0.59699   1.00
H2       0.59462    0.48257    0.73324   1.00
H2       0.70763    0.55731    0.60511   1.00
H2       0.67658    0.54463    0.72498   1.00
C4       0.12414    0.29208    0.65654   1.00
C4       0.15087    0.34927    0.66995   1.00
C3       0.13104    0.23389    0.66037   1.00
C3       0.17993    0.34928    0.68913   1.00
C3       0.08912    0.29226    0.63851   1.00
C3       0.14880    0.40912    0.66424   1.00
C2       0.06721    0.17499    0.62993   1.00
C2       0.20797    0.46609    0.69667   1.00
C3       0.10320    0.17693    0.64755   1.00
C3       0.20794    0.40596    0.70206   1.00
C3       0.06119    0.23309    0.62591   1.00
C3       0.17821    0.46589    0.67780   1.00
H1       0.15714    0.23099    0.67251   1.00
H1       0.18122    0.30786    0.69450   1.00
C5       0.08305    0.35057    0.63340   1.00
C5       0.11762    0.41110    0.64551   1.00
H1       0.10970    0.13646    0.65120   1.00
H1       0.22838    0.40282    0.71564   1.00
H1       0.03554    0.23111    0.61303   1.00
H1       0.17813    0.50951    0.67420   1.00
C6       0.03970    0.34721    0.61547   1.00
C6       0.12224    0.47712    0.63867   1.00
H2       -0.00772   0.29843    0.61568   1.00
H2       0.17396    0.51896    0.64121   1.00
H2       0.02116    0.38294    0.61705   1.00
H2       0.11767    0.47880    0.62230   1.00
C6       0.07757    0.36005    0.59463   1.00
C6       0.06791    0.49093    0.64897   1.00
H2       0.10481    0.33157    0.59413   1.00
H2       0.06522    0.47968    0.66518   1.00
C6       0.03364    0.34303    0.57487   1.00
C6       0.07725    0.56392    0.64660   1.00
H2       0.11721    0.41373    0.59408   1.00
H2       0.01794    0.45397    0.64291   1.00
C6       -0.01698   0.26541    0.57284   1.00
C6       0.14207    0.61857    0.65772   1.00
C6       -0.00643   0.38191    0.57407   1.00
C6       0.08076    0.58421    0.62400   1.00
C6       0.08216    0.36533    0.55627   1.00
C6       0.01487    0.56406    0.65633   1.00
H2       0.00962    0.23640    0.57368   1.00
H2       0.14168    0.60515    0.67365   1.00
H2       -0.05532   0.24702    0.58478   1.00
H2       0.18830    0.62419    0.65082   1.00
H2       -0.04396   0.25353    0.55837   1.00
H2       0.14559    0.66840    0.65717   1.00
H2       -0.03297   0.37352    0.55962   1.00
H2       0.08235    0.63299    0.62249   1.00
H2       -0.04467   0.36468    0.58605   1.00
H2       0.12641    0.58944    0.61677   1.00
H2       0.02789    0.43660    0.57590   1.00
H2       0.03637    0.54582    0.61573   1.00
H2       0.11124    0.33875    0.55599   1.00
H2       0.01046    0.55071    0.67239   1.00
H2       0.05375    0.35405    0.54206   1.00
H2       0.01926    0.61420    0.65517   1.00
H2       0.11833    0.42003    0.55662   1.00
H2       -0.03245   0.52740    0.64885   1.00
C4       0.16754    0.87566    0.65661   1.00
C4       0.19797    0.84899    0.67006   1.00
C3       0.10106    0.86594    0.65989   1.00
C3       0.16718    0.81705    0.68879   1.00
C3       0.20422    0.91355    0.63910   1.00
C3       0.26165    0.85411    0.66484   1.00
C2       0.10730    0.93241    0.62996   1.00
C2       0.25777    0.79206    0.69681   1.00
C3       0.07188    0.89368    0.64706   1.00
C3       0.19589    0.78911    0.70173   1.00
C3       0.17285    0.94126    0.62647   1.00
C3       0.28901    0.82467    0.67838   1.00
H1       0.07106    0.83776    0.67163   1.00
H1       0.12308    0.81348    0.69383   1.00
C5       0.27017    0.92260    0.63453   1.00
C5       0.29649    0.88824    0.64659   1.00
H1       0.02385    0.88505    0.65031   1.00
H1       0.17102    0.76650    0.71499   1.00
H1       0.19752    0.96889    0.61396   1.00
H1       0.33395    0.82687    0.67512   1.00
C6       0.31139    0.96881    0.61722   1.00
C6       0.36003    0.88691    0.64019   1.00
H2       0.30811    1.01518    0.61774   1.00
H2       0.35170    0.83556    0.64229   1.00
H2       0.36574    0.98886    0.61934   1.00
H2       0.36822    0.89365    0.62391   1.00
C6       0.28994    0.93333    0.59595   1.00
C6       0.42603    0.94147    0.65137   1.00
H2       0.23433    0.90457    0.59484   1.00
H2       0.41523    0.94178    0.66752   1.00
C6       0.31803    0.97982    0.57672   1.00
C6       0.49151    0.93506    0.64942   1.00
H2       0.30587    0.89510    0.59523   1.00
H2       0.43806    0.99167    0.64576   1.00
C6       0.28880    1.02863    0.57483   1.00
C6       0.48234    0.86980    0.66000   1.00
C6       0.39695    1.02220    0.57679   1.00
C6       0.51150    0.93506    0.62695   1.00
C6       0.29552    0.93359    0.55759   1.00
C6       0.55154    0.99736    0.66004   1.00
H2       0.23311    1.00033    0.57506   1.00
H2       0.46711    0.86771    0.67582   1.00
H2       0.30615    1.06548    0.58718   1.00
H2       0.44364    0.82380    0.65248   1.00
H2       0.30489    1.05743    0.56068   1.00
H2       0.52970    0.86819    0.65978   1.00
H2       0.41618    1.05069    0.56267   1.00
H2       0.55981    0.93550    0.62578   1.00
H2       0.41539    1.05899    0.58918   1.00
H2       0.47301    0.88967    0.61909   1.00
H2       0.41883    0.98914    0.57853   1.00
H2       0.51688    0.97979    0.61903   1.00
H2       0.24001    0.90301    0.55669   1.00
H2       0.54030    0.99936    0.67605   1.00
H2       0.31358    0.96383    0.54373   1.00
H2       0.59844    0.99496    0.65920   1.00
H2       0.31577    0.89883    0.55783   1.00
H2       0.56145    1.04505    0.65298   1.00
