data_IRMOF10_interpen_symm_ligand3cp_label_d_2.

_audit_creation_method             'generated by an auxiliary program of Tobunporous'

_symmetry_space_group_name_H-M     'P 1'
_symmetry_Int_Tables_number        1
_symmetry_cell_setting             triclinic

_cell_length_a                    22.6523
_cell_length_b                    22.6523
_cell_length_c                    65.9502
_cell_angle_alpha                 90.0000
_cell_angle_beta                  90.0000
_cell_angle_gamma                 120.0000

loop_
_atom_site_label
_atom_site_fract_x
_atom_site_fract_y
_atom_site_fract_z
_atom_site_occupancy
O1       0.00000    0.00000    0.57470   1.00
Zn1      0.00000    0.00000    0.54560   1.00
Zn1      0.94843    0.04287    0.58357   1.00
Zn1      0.09443    0.05157    0.58357   1.00
Zn1      0.95713    0.90557    0.58357   1.00
O2       0.93860    0.02610    0.53560   1.00
O2       0.08750    0.06140    0.53560   1.00
O2       0.97390    0.91250    0.53560   1.00
O2       0.91300    0.07160    0.56150   1.00
O2       0.00463    0.12027    0.60077   1.00
O2       0.87413    0.98077    0.60037   1.00
O2       0.15860    0.08700    0.56150   1.00
O2       0.10663    0.12587    0.60037   1.00
O2       0.11563    0.99537    0.60077   1.00
O2       0.92840    0.84140    0.56150   1.00
O2       0.87973    0.88437    0.60077   1.00
O2       0.01923    0.89337    0.60037   1.00
C1       0.91390    0.06020    0.54330   1.00
C1       0.14630    0.08610    0.54330   1.00
C1       0.93980    0.85370    0.54330   1.00
C1       0.06663    0.14397    0.60637   1.00
C1       0.85603    0.92267    0.60637   1.00
C1       0.07733    0.93337    0.60637   1.00
O1       0.00000    0.00000    0.92530   1.00
Zn1      0.00000    0.00000    0.95440   1.00
Zn1      0.04287    0.94843    0.91643   1.00
Zn1      0.05157    0.09443    0.91643   1.00
Zn1      0.90557    0.95713    0.91643   1.00
O2       0.02610    0.93860    0.96440   1.00
O2       0.06140    0.08750    0.96440   1.00
O2       0.91250    0.97390    0.96440   1.00
O2       0.07160    0.91300    0.93850   1.00
O2       0.12027    0.00463    0.89923   1.00
O2       0.98077    0.87413    0.89963   1.00
O2       0.08700    0.15860    0.93850   1.00
O2       0.12587    0.10663    0.89963   1.00
O2       0.99537    0.11563    0.89923   1.00
O2       0.84140    0.92840    0.93850   1.00
O2       0.88437    0.87973    0.89923   1.00
O2       0.89337    0.01923    0.89963   1.00
C1       0.06020    0.91390    0.95670   1.00
C1       0.08610    0.14630    0.95670   1.00
C1       0.85370    0.93980    0.95670   1.00
C1       0.14397    0.06663    0.89363   1.00
C1       0.92267    0.85603    0.89363   1.00
C1       0.93337    0.07733    0.89363   1.00
O1       0.00000    0.00000    0.42530   1.00
Zn1      0.00000    0.00000    0.45440   1.00
Zn1      0.05157    0.95713    0.41643   1.00
Zn1      0.90557    0.94843    0.41643   1.00
Zn1      0.04287    0.09443    0.41643   1.00
O2       0.06140    0.97390    0.46440   1.00
O2       0.91250    0.93860    0.46440   1.00
O2       0.02610    0.08750    0.46440   1.00
O2       0.08700    0.92840    0.43850   1.00
O2       0.99537    0.87973    0.39923   1.00
O2       0.12587    0.01923    0.39963   1.00
O2       0.84140    0.91300    0.43850   1.00
O2       0.89337    0.87413    0.39963   1.00
O2       0.88437    0.00463    0.39923   1.00
O2       0.07160    0.15860    0.43850   1.00
O2       0.12027    0.11563    0.39923   1.00
O2       0.98077    0.10663    0.39963   1.00
C1       0.08610    0.93980    0.45670   1.00
C1       0.85370    0.91390    0.45670   1.00
C1       0.06020    0.14630    0.45670   1.00
C1       0.93337    0.85603    0.39363   1.00
C1       0.14397    0.07733    0.39363   1.00
C1       0.92267    0.06663    0.39363   1.00
O1       0.00000    0.00000    0.07470   1.00
Zn1      0.00000    0.00000    0.04560   1.00
Zn1      0.95713    0.05157    0.08357   1.00
Zn1      0.94843    0.90557    0.08357   1.00
Zn1      0.09443    0.04287    0.08357   1.00
O2       0.97390    0.06140    0.03560   1.00
O2       0.93860    0.91250    0.03560   1.00
O2       0.08750    0.02610    0.03560   1.00
O2       0.92840    0.08700    0.06150   1.00
O2       0.87973    0.99537    0.10077   1.00
O2       0.01923    0.12587    0.10037   1.00
O2       0.91300    0.84140    0.06150   1.00
O2       0.87413    0.89337    0.10037   1.00
O2       0.00463    0.88437    0.10077   1.00
O2       0.15860    0.07160    0.06150   1.00
O2       0.11563    0.12027    0.10077   1.00
O2       0.10663    0.98077    0.10037   1.00
C1       0.93980    0.08610    0.04330   1.00
C1       0.91390    0.85370    0.04330   1.00
C1       0.14630    0.06020    0.04330   1.00
C1       0.85603    0.93337    0.10637   1.00
C1       0.07733    0.14397    0.10637   1.00
C1       0.06663    0.92267    0.10637   1.00
O1       0.66667    0.33333    0.90803   1.00
Zn1      0.66667    0.33333    0.87893   1.00
Zn1      0.61510    0.37620    0.91690   1.00
Zn1      0.76110    0.38490    0.91690   1.00
Zn1      0.62380    0.23890    0.91690   1.00
O2       0.60527    0.35943    0.86893   1.00
O2       0.75417    0.39473    0.86893   1.00
O2       0.64057    0.24583    0.86893   1.00
O2       0.57967    0.40493    0.89483   1.00
O2       0.67130    0.45360    0.93410   1.00
O2       0.54080    0.31410    0.93370   1.00
O2       0.82527    0.42033    0.89483   1.00
O2       0.77330    0.45920    0.93370   1.00
O2       0.78230    0.32870    0.93410   1.00
O2       0.59507    0.17473    0.89483   1.00
O2       0.54640    0.21770    0.93410   1.00
O2       0.68590    0.22670    0.93370   1.00
C1       0.58057    0.39353    0.87663   1.00
C1       0.81297    0.41943    0.87663   1.00
C1       0.60647    0.18703    0.87663   1.00
C1       0.73330    0.47730    0.93970   1.00
C1       0.52270    0.25600    0.93970   1.00
C1       0.74400    0.26670    0.93970   1.00
O1       0.66667    0.33333    0.25863   1.00
Zn1      0.66667    0.33333    0.28773   1.00
Zn1      0.70953    0.28177    0.24977   1.00
Zn1      0.71823    0.42777    0.24977   1.00
Zn1      0.57223    0.29047    0.24977   1.00
O2       0.69277    0.27193    0.29773   1.00
O2       0.72807    0.42083    0.29773   1.00
O2       0.57917    0.30723    0.29773   1.00
O2       0.73827    0.24633    0.27183   1.00
O2       0.78693    0.33797    0.23257   1.00
O2       0.64743    0.20747    0.23297   1.00
O2       0.75367    0.49193    0.27183   1.00
O2       0.79253    0.43997    0.23297   1.00
O2       0.66203    0.44897    0.23257   1.00
O2       0.50807    0.26173    0.27183   1.00
O2       0.55103    0.21307    0.23257   1.00
O2       0.56003    0.35257    0.23297   1.00
C1       0.72687    0.24723    0.29003   1.00
C1       0.75277    0.47963    0.29003   1.00
C1       0.52037    0.27313    0.29003   1.00
C1       0.81063    0.39997    0.22697   1.00
C1       0.58933    0.18937    0.22697   1.00
C1       0.60003    0.41067    0.22697   1.00
O1       0.66667    0.33333    0.75863   1.00
Zn1      0.66667    0.33333    0.78773   1.00
Zn1      0.71823    0.29047    0.74977   1.00
Zn1      0.57223    0.28177    0.74977   1.00
Zn1      0.70953    0.42777    0.74977   1.00
O2       0.72807    0.30723    0.79773   1.00
O2       0.57917    0.27193    0.79773   1.00
O2       0.69277    0.42083    0.79773   1.00
O2       0.75367    0.26173    0.77183   1.00
O2       0.66203    0.21307    0.73257   1.00
O2       0.79253    0.35257    0.73297   1.00
O2       0.50807    0.24633    0.77183   1.00
O2       0.56003    0.20747    0.73297   1.00
O2       0.55103    0.33797    0.73257   1.00
O2       0.73827    0.49193    0.77183   1.00
O2       0.78693    0.44897    0.73257   1.00
O2       0.64743    0.43997    0.73297   1.00
C1       0.75277    0.27313    0.79003   1.00
C1       0.52037    0.24723    0.79003   1.00
C1       0.72687    0.47963    0.79003   1.00
C1       0.60003    0.18937    0.72697   1.00
C1       0.81063    0.41067    0.72697   1.00
C1       0.58933    0.39997    0.72697   1.00
O1       0.66667    0.33333    0.40803   1.00
Zn1      0.66667    0.33333    0.37893   1.00
Zn1      0.62380    0.38490    0.41690   1.00
Zn1      0.61510    0.23890    0.41690   1.00
Zn1      0.76110    0.37620    0.41690   1.00
O2       0.64057    0.39473    0.36893   1.00
O2       0.60527    0.24583    0.36893   1.00
O2       0.75417    0.35943    0.36893   1.00
O2       0.59507    0.42033    0.39483   1.00
O2       0.54640    0.32870    0.43410   1.00
O2       0.68590    0.45920    0.43370   1.00
O2       0.57967    0.17473    0.39483   1.00
O2       0.54080    0.22670    0.43370   1.00
O2       0.67130    0.21770    0.43410   1.00
O2       0.82527    0.40493    0.39483   1.00
O2       0.78230    0.45360    0.43410   1.00
O2       0.77330    0.31410    0.43370   1.00
C1       0.60647    0.41943    0.37663   1.00
C1       0.58057    0.18703    0.37663   1.00
C1       0.81297    0.39353    0.37663   1.00
C1       0.52270    0.26670    0.43970   1.00
C1       0.74400    0.47730    0.43970   1.00
C1       0.73330    0.25600    0.43970   1.00
O1       0.33333    0.66667    0.24137   1.00
Zn1      0.33333    0.66667    0.21227   1.00
Zn1      0.28177    0.70953    0.25023   1.00
Zn1      0.42777    0.71823    0.25023   1.00
Zn1      0.29047    0.57223    0.25023   1.00
O2       0.27193    0.69277    0.20227   1.00
O2       0.42083    0.72807    0.20227   1.00
O2       0.30723    0.57917    0.20227   1.00
O2       0.24633    0.73827    0.22817   1.00
O2       0.33797    0.78693    0.26743   1.00
O2       0.20747    0.64743    0.26703   1.00
O2       0.49193    0.75367    0.22817   1.00
O2       0.43997    0.79253    0.26703   1.00
O2       0.44897    0.66203    0.26743   1.00
O2       0.26173    0.50807    0.22817   1.00
O2       0.21307    0.55103    0.26743   1.00
O2       0.35257    0.56003    0.26703   1.00
C1       0.24723    0.72687    0.20997   1.00
C1       0.47963    0.75277    0.20997   1.00
C1       0.27313    0.52037    0.20997   1.00
C1       0.39997    0.81063    0.27303   1.00
C1       0.18937    0.58933    0.27303   1.00
C1       0.41067    0.60003    0.27303   1.00
O1       0.33333    0.66667    0.59197   1.00
Zn1      0.33333    0.66667    0.62107   1.00
Zn1      0.37620    0.61510    0.58310   1.00
Zn1      0.38490    0.76110    0.58310   1.00
Zn1      0.23890    0.62380    0.58310   1.00
O2       0.35943    0.60527    0.63107   1.00
O2       0.39473    0.75417    0.63107   1.00
O2       0.24583    0.64057    0.63107   1.00
O2       0.40493    0.57967    0.60517   1.00
O2       0.45360    0.67130    0.56590   1.00
O2       0.31410    0.54080    0.56630   1.00
O2       0.42033    0.82527    0.60517   1.00
O2       0.45920    0.77330    0.56630   1.00
O2       0.32870    0.78230    0.56590   1.00
O2       0.17473    0.59507    0.60517   1.00
O2       0.21770    0.54640    0.56590   1.00
O2       0.22670    0.68590    0.56630   1.00
C1       0.39353    0.58057    0.62337   1.00
C1       0.41943    0.81297    0.62337   1.00
C1       0.18703    0.60647    0.62337   1.00
C1       0.47730    0.73330    0.56030   1.00
C1       0.25600    0.52270    0.56030   1.00
C1       0.26670    0.74400    0.56030   1.00
O1       0.33333    0.66667    0.09197   1.00
Zn1      0.33333    0.66667    0.12107   1.00
Zn1      0.38490    0.62380    0.08310   1.00
Zn1      0.23890    0.61510    0.08310   1.00
Zn1      0.37620    0.76110    0.08310   1.00
O2       0.39473    0.64057    0.13107   1.00
O2       0.24583    0.60527    0.13107   1.00
O2       0.35943    0.75417    0.13107   1.00
O2       0.42033    0.59507    0.10517   1.00
O2       0.32870    0.54640    0.06590   1.00
O2       0.45920    0.68590    0.06630   1.00
O2       0.17473    0.57967    0.10517   1.00
O2       0.22670    0.54080    0.06630   1.00
O2       0.21770    0.67130    0.06590   1.00
O2       0.40493    0.82527    0.10517   1.00
O2       0.45360    0.78230    0.06590   1.00
O2       0.31410    0.77330    0.06630   1.00
C1       0.41943    0.60647    0.12337   1.00
C1       0.18703    0.58057    0.12337   1.00
C1       0.39353    0.81297    0.12337   1.00
C1       0.26670    0.52270    0.06030   1.00
C1       0.47730    0.74400    0.06030   1.00
C1       0.25600    0.73330    0.06030   1.00
O1       0.33333    0.66667    0.74137   1.00
Zn1      0.33333    0.66667    0.71227   1.00
Zn1      0.29047    0.71823    0.75023   1.00
Zn1      0.28177    0.57223    0.75023   1.00
Zn1      0.42777    0.70953    0.75023   1.00
O2       0.30723    0.72807    0.70227   1.00
O2       0.27193    0.57917    0.70227   1.00
O2       0.42083    0.69277    0.70227   1.00
O2       0.26173    0.75367    0.72817   1.00
O2       0.21307    0.66203    0.76743   1.00
O2       0.35257    0.79253    0.76703   1.00
O2       0.24633    0.50807    0.72817   1.00
O2       0.20747    0.56003    0.76703   1.00
O2       0.33797    0.55103    0.76743   1.00
O2       0.49193    0.73827    0.72817   1.00
O2       0.44897    0.78693    0.76743   1.00
O2       0.43997    0.64743    0.76703   1.00
C1       0.27313    0.75277    0.70997   1.00
C1       0.24723    0.52037    0.70997   1.00
C1       0.47963    0.72687    0.70997   1.00
C1       0.18937    0.60003    0.77303   1.00
C1       0.41067    0.81063    0.77303   1.00
C1       0.39997    0.58933    0.77303   1.00
C4       0.85992    0.68991    0.49970   1.00
C4       0.83107    0.63322    0.48606   1.00
C3       0.92841    0.74419    0.49849   1.00
C3       0.86938    0.62201    0.47105   1.00
C3       0.81877    0.69248    0.51569   1.00
C3       0.75994    0.58476    0.48730   1.00
C2       0.91544    0.80100    0.52848   1.00
C2       0.76926    0.51649    0.45934   1.00
C3       0.95556    0.79802    0.51255   1.00
C3       0.83924    0.56561    0.45792   1.00
C3       0.84675    0.74788    0.52949   1.00
C3       0.73117    0.52674    0.47452   1.00
H1       0.96051    0.74633    0.48733   1.00
H1       0.92039    0.65424    0.46929   1.00
C5       0.74987    0.63984    0.51775   1.00
C5       0.71799    0.59402    0.50139   1.00
H1       1.00558    0.83560    0.51100   1.00
H1       0.86934    0.56043    0.44725   1.00
H1       0.81608    0.75001    0.54054   1.00
H1       0.68116    0.49029    0.47647   1.00
O3       0.71394    0.63646    0.53500   1.00
O3       0.64770    0.55587    0.50017   1.00
Si1      0.71127    0.58903    0.55403   1.00
Si1      0.60782    0.58112    0.48498   1.00
C6       0.67069    0.61638    0.57145   1.00
C6       0.65733    0.50326    0.54697   1.00
C6       0.79278    0.60851    0.56274   1.00
C6       0.65694    0.65478    0.47010   1.00
C6       0.56204    0.51051    0.46901   1.00
C6       0.54866    0.59122    0.49976   1.00
C6       0.70096    0.69544    0.57302   1.00
H2       0.62030    0.59667    0.56466   1.00
C6       0.65728    0.58992    0.59393   1.00
H2       0.62475    0.50777    0.53561   1.00
C6       0.68973    0.46454    0.53628   1.00
C6       0.60760    0.45225    0.56323   1.00
H2       0.81914    0.66409    0.56386   1.00
C6       0.79715    0.58203    0.58434   1.00
C6       0.83870    0.59066    0.54912   1.00
C6       0.70674    0.72268    0.48128   1.00
C6       0.69667    0.65057    0.45121   1.00
H2       0.61791    0.66361    0.46343   1.00
H2       0.60142    0.50944    0.45974   1.00
C6       0.52378    0.43921    0.47967   1.00
C6       0.51011    0.51309    0.45392   1.00
H2       0.50552    0.53951    0.50129   1.00
C6       0.57064    0.61658    0.52194   1.00
C6       0.51884    0.63498    0.49085   1.00
H2       0.70236    0.71788    0.55824   1.00
H2       0.75283    0.72065    0.57908   1.00
H2       0.66990    0.70780    0.58292   1.00
H2       0.60992    0.58593    0.59948   1.00
H2       0.65264    0.54001    0.59556   1.00
H2       0.69757    0.62461    0.60422   1.00
H2       0.65041    0.41811    0.52893   1.00
H2       0.72542    0.49503    0.52441   1.00
H2       0.71615    0.44952    0.54715   1.00
H2       0.57479    0.46997    0.56965   1.00
H2       0.57347    0.40227    0.55655   1.00
H2       0.63569    0.44475    0.57547   1.00
H2       0.76259    0.52712    0.58564   1.00
H2       0.84868    0.59231    0.58786   1.00
H2       0.78508    0.60780    0.59613   1.00
H2       0.82843    0.53874    0.55169   1.00
H2       0.83262    0.59551    0.53302   1.00
H2       0.89256    0.62496    0.55263   1.00
H2       0.75516    0.72567    0.48481   1.00
H2       0.71827    0.76661    0.47171   1.00
H2       0.68517    0.72888    0.49532   1.00
H2       0.71635    0.69689    0.44204   1.00
H2       0.74025    0.64538    0.45550   1.00
H2       0.66412    0.60830    0.44121   1.00
H2       0.50691    0.39828    0.46846   1.00
H2       0.55708    0.43258    0.49029   1.00
H2       0.47892    0.43189    0.48797   1.00
H2       0.53312    0.56058    0.44530   1.00
H2       0.49246    0.47152    0.44289   1.00
H2       0.46528    0.50764    0.46184   1.00
H2       0.61551    0.66740    0.52249   1.00
H2       0.52970    0.61762    0.53041   1.00
H2       0.58281    0.58207    0.52992   1.00
H2       0.47561    0.62876    0.49990   1.00
H2       0.55699    0.68923    0.49072   1.00
H2       0.50013    0.61967    0.47541   1.00
C4       0.31668    0.17135    0.50206   1.00
C4       0.37201    0.19727    0.48795   1.00
C3       0.31599    0.13903    0.52059   1.00
C3       0.42925    0.18796    0.49004   1.00
C3       0.25805    0.17684    0.49741   1.00
C3       0.37073    0.23484    0.47073   1.00
C2       0.20141    0.11725    0.52933   1.00
C2       0.48110    0.24996    0.45849   1.00
C3       0.25982    0.11236    0.53380   1.00
C3       0.48262    0.21412    0.47583   1.00
C3       0.20243    0.15076    0.51112   1.00
C3       0.42359    0.25824    0.45614   1.00
H1       0.35638    0.13412    0.52506   1.00
H1       0.43366    0.16155    0.50189   1.00
C5       0.25547    0.20861    0.47914   1.00
C5       0.31652    0.24837    0.46805   1.00
H1       0.26202    0.08908    0.54691   1.00
H1       0.52301    0.20633    0.47823   1.00
H1       0.16152    0.15675    0.50785   1.00
H1       0.41977    0.28122    0.44325   1.00
O3       0.19494    0.20377    0.47310   1.00
O3       0.32079    0.29548    0.45392   1.00
Si1      0.14431    0.14287    0.45770   1.00
Si1      0.35876    0.37587    0.46026   1.00
C6       0.07474    0.15736    0.45917   1.00
C6       0.18209    0.16327    0.43344   1.00
C6       0.12176    0.06065    0.46656   1.00
C6       0.39532    0.39919    0.48471   1.00
C6       0.42299    0.41495    0.44186   1.00
C6       0.29973    0.40398    0.45655   1.00
C6       0.05346    0.16643    0.48108   1.00
H2       0.09525    0.20724    0.45197   1.00
C6       0.00601    0.10962    0.44785   1.00
H2       0.21379    0.21864    0.43433   1.00
C6       0.23143    0.13654    0.42742   1.00
C6       0.13514    0.14903    0.41450   1.00
H2       0.10744    0.06240    0.48228   1.00
C6       0.05832    -0.00139   0.45654   1.00
C6       0.17716    0.03822    0.46723   1.00
C6       0.34805    0.36502    0.50346   1.00
C6       0.46368    0.40016    0.48933   1.00
H2       0.40968    0.45288    0.48552   1.00
H2       0.45895    0.39788    0.44568   1.00
C6       0.40111    0.39168    0.41942   1.00
C6       0.46480    0.49465    0.44161   1.00
H2       0.30212    0.41394    0.44029   1.00
C6       0.22349    0.35083    0.46082   1.00
C6       0.31375    0.47155    0.46724   1.00
H2       0.09637    0.20709    0.48932   1.00
H2       0.03414    0.11950    0.48990   1.00
H2       0.01367    0.18033    0.48058   1.00
H2       -0.01758   0.13908    0.44284   1.00
H2       0.01277    0.08533    0.43454   1.00
H2       -0.03116   0.06921    0.45765   1.00
H2       0.26207    0.16407    0.41420   1.00
H2       0.26735    0.14410    0.43948   1.00
H2       0.20317    0.08247    0.42352   1.00
H2       0.10512    0.17440    0.41583   1.00
H2       0.16521    0.16868    0.40061   1.00
H2       0.10071    0.09439    0.41241   1.00
H2       0.06342    -0.00038   0.44005   1.00
H2       0.05108    -0.05028   0.46194   1.00
H2       0.01143    -0.00191   0.46039   1.00
H2       0.18064    0.01609    0.45288   1.00
H2       0.22789    0.07955    0.47071   1.00
H2       0.16415    -0.00065   0.47892   1.00
H2       0.34223    0.31528    0.50680   1.00
H2       0.36973    0.39650    0.51700   1.00
H2       0.29750    0.35861    0.50133   1.00
H2       0.48455    0.42463    0.50394   1.00
H2       0.45684    0.34914    0.49014   1.00
H2       0.50290    0.42917    0.47805   1.00
H2       0.44605    0.40962    0.40970   1.00
H2       0.37248    0.33612    0.41815   1.00
H2       0.36972    0.41151    0.41326   1.00
H2       0.48403    0.51553    0.45665   1.00
H2       0.50919    0.51258    0.43166   1.00
H2       0.43419    0.51617    0.43600   1.00
H2       0.21475    0.33456    0.47663   1.00
H2       0.18994    0.37096    0.45703   1.00
H2       0.20782    0.30591    0.45150   1.00
H2       0.27983    0.48889    0.46135   1.00
H2       0.30546    0.46451    0.48361   1.00
H2       0.36574    0.51279    0.46465   1.00
C4       0.82982    0.14631    0.50200   1.00
C4       0.80373    0.17544    0.48785   1.00
C3       0.87431    0.18339    0.51821   1.00
C3       0.82435    0.24585    0.48736   1.00
C3       0.81158    0.07650    0.49979   1.00
C3       0.75410    0.13227    0.47332   1.00
C2       0.88308    0.08462    0.52938   1.00
C2       0.74971    0.23068    0.45844   1.00
C3       0.90053    0.15355    0.53146   1.00
C3       0.79764    0.27264    0.47319   1.00
C3       0.83757    0.04700    0.51354   1.00
C3       0.73000    0.16077    0.45862   1.00
H1       0.88877    0.23310    0.52091   1.00
H1       0.85969    0.27982    0.49720   1.00
C5       0.76728    0.03655    0.48391   1.00
C5       0.72918    0.06107    0.47339   1.00
H1       0.93289    0.18302    0.54281   1.00
H1       0.81399    0.32386    0.47367   1.00
H1       0.82254    -0.00363   0.51211   1.00
H1       0.69781    0.12993    0.44752   1.00
O3       0.75890    -0.02684   0.47975   1.00
O3       0.67211    0.01695    0.46231   1.00
Si1      0.80629    -0.03479   0.46252   1.00
Si1      0.59688    -0.01038   0.47227   1.00
C6       0.78012    -0.12116   0.46727   1.00
C6       0.77744    -0.02457   0.43865   1.00
C6       0.89454    0.01822    0.46685   1.00
C6       0.59199    0.02027    0.49652   1.00
C6       0.55595    0.01450    0.45443   1.00
C6       0.55515    -0.10013   0.47242   1.00
C6       0.77921    -0.14097   0.49011   1.00
H2       0.72670    -0.14694   0.46261   1.00
C6       0.81283    -0.15804   0.45552   1.00
H2       0.72461    -0.03921   0.44191   1.00
C6       0.81063    0.04873    0.42936   1.00
C6       0.77406    -0.07159   0.42076   1.00
H2       0.89910    0.00924    0.48292   1.00
C6       0.94402    0.00029    0.45530   1.00
C6       0.92795    0.09755    0.46421   1.00
C6       0.63075    0.00934    0.51444   1.00
C6       0.60498    0.09472    0.49877   1.00
H2       0.53798    -0.01144   0.50018   1.00
H2       0.58218    0.06989    0.45588   1.00
C6       0.56436    0.00047    0.43165   1.00
C6       0.47840    -0.01141   0.45774   1.00
H2       0.53590    -0.11450   0.45697   1.00
C6       0.60105    -0.13246   0.47591   1.00
C6       0.49192    -0.13954   0.48669   1.00
H2       0.74795    -0.12695   0.49929   1.00
H2       0.83062    -0.11571   0.49651   1.00
H2       0.75755    -0.19600   0.49186   1.00
H2       0.77488    -0.21177   0.45324   1.00
H2       0.83225    -0.13599   0.44067   1.00
H2       0.85490    -0.15712   0.46389   1.00
H2       0.77922    0.05054    0.41704   1.00
H2       0.81540    0.08645    0.44046   1.00
H2       0.86099    0.06440    0.42311   1.00
H2       0.74290    -0.12542   0.42469   1.00
H2       0.75051    -0.06379   0.40730   1.00
H2       0.82499    -0.06113   0.41646   1.00
H2       0.93457    -0.00340   0.43897   1.00
H2       0.99761    0.03846    0.45780   1.00
H2       0.93888    -0.04741   0.46067   1.00
H2       0.94394    0.11366    0.44859   1.00
H2       0.89462    0.11694    0.46848   1.00
H2       0.97348    0.12385    0.47372   1.00
H2       0.68433    0.04876    0.51481   1.00
H2       0.60862    0.01144    0.52898   1.00
H2       0.62789    -0.04004   0.51368   1.00
H2       0.59075    0.10269    0.51395   1.00
H2       0.65833    0.13293    0.49661   1.00
H2       0.57453    0.10535    0.48816   1.00
H2       0.54745    0.02776    0.42169   1.00
H2       0.61770    0.01837    0.42791   1.00
H2       0.53466    -0.05365   0.42792   1.00
H2       0.46793    -0.00182   0.47318   1.00
H2       0.46127    0.01518    0.44755   1.00
H2       0.44734    -0.06593   0.45462   1.00
H2       0.62567    -0.11951   0.49074   1.00
H2       0.57200    -0.18796   0.47459   1.00
H2       0.64079    -0.11414   0.46446   1.00
H2       0.46458    -0.19403   0.48315   1.00
H2       0.50714    -0.13400   0.50262   1.00
H2       0.45549    -0.12176   0.48493   1.00
C4       0.68988    0.86002    0.00029   1.00
C4       0.63318    0.83113    0.01393   1.00
C3       0.74336    0.92894    0.00122   1.00
C3       0.62110    0.86970    0.02864   1.00
C3       0.69328    0.81842    -0.01541   1.00
C3       0.58562    0.75971    0.01300   1.00
C2       0.80101    0.91549    -0.02848   1.00
C2       0.51648    0.76921    0.04066   1.00
C3       0.79721    0.95606    -0.01283   1.00
C3       0.56472    0.83952    0.04177   1.00
C3       0.74870    0.84640    -0.02920   1.00
C3       0.52758    0.73083    0.02578   1.00
H1       0.74489    0.96139    0.01217   1.00
H1       0.65267    0.92092    0.03017   1.00
C5       0.64147    0.74907    -0.01718   1.00
C5       0.59579    0.71755    -0.00077   1.00
H1       0.83419    1.00639    -0.01149   1.00
H1       0.55890    0.86983    0.05222   1.00
H1       0.75146    0.81546    -0.04004   1.00
H1       0.49174    0.68051    0.02404   1.00
O3       0.63878    0.71245    -0.03420   1.00
O3       0.55861    0.64730    0.00080   1.00
Si1      0.59099    0.70783    -0.05337   1.00
Si1      0.58484    0.60914    0.01634   1.00
C6       0.61940    0.66719    -0.07042   1.00
C6       0.50543    0.65318    -0.04625   1.00
C6       0.60911    0.78843    -0.06257   1.00
C6       0.65822    0.66004    0.03114   1.00
C6       0.51440    0.56337    0.03237   1.00
C6       0.59618    0.54993    0.00199   1.00
C6       0.69863    0.69859    -0.07192   1.00
H2       0.60045    0.61730    -0.06335   1.00
C6       0.59299    0.65214    -0.09289   1.00
H2       0.51057    0.62165    -0.03465   1.00
C6       0.46571    0.68512    -0.03591   1.00
C6       0.45492    0.60205    -0.06234   1.00
H2       0.66471    0.81552    -0.06367   1.00
C6       0.58234    0.79102    -0.08428   1.00
C6       0.59020    0.83432    -0.04932   1.00
C6       0.72583    0.71001    0.01986   1.00
C6       0.65318    0.70036    0.04974   1.00
H2       0.66786    0.62194    0.03810   1.00
H2       0.51256    0.60286    0.04137   1.00
C6       0.44318    0.52352    0.02173   1.00
C6       0.51796    0.51285    0.04782   1.00
H2       0.54481    0.50613    0.00058   1.00
C6       0.62141    0.57093    -0.02024   1.00
C6       0.64091    0.52174    0.01126   1.00
H2       0.72122    0.70124    -0.05707   1.00
H2       0.72310    0.75009    -0.07824   1.00
H2       0.71171    0.66751    -0.08156   1.00
H2       0.58988    0.60486    -0.09814   1.00
H2       0.54271    0.64650    -0.09467   1.00
H2       0.62726    0.69212    -0.10333   1.00
H2       0.41957    0.64572    -0.02846   1.00
H2       0.49578    0.72172    -0.02418   1.00
H2       0.45006    0.71038    -0.04701   1.00
H2       0.47344    0.56954    -0.06848   1.00
H2       0.40511    0.56767    -0.05560   1.00
H2       0.44683    0.62902    -0.07480   1.00
H2       0.52758    0.75568    -0.08554   1.00
H2       0.59175    0.84204    -0.08812   1.00
H2       0.60861    0.77890    -0.09590   1.00
H2       0.53799    0.82301    -0.05200   1.00
H2       0.59518    0.82930    -0.03317   1.00
H2       0.62381    0.88810    -0.05308   1.00
H2       0.72794    0.75781    0.01601   1.00
H2       0.76994    0.72281    0.02950   1.00
H2       0.73253    0.68798    0.00599   1.00
H2       0.69955    0.72124    0.05893   1.00
H2       0.64712    0.74316    0.04514   1.00
H2       0.61112    0.66788    0.05982   1.00
H2       0.40217    0.50666    0.03291   1.00
H2       0.43588    0.55577    0.01086   1.00
H2       0.43666    0.47849    0.01371   1.00
H2       0.56544    0.53703    0.05645   1.00
H2       0.47632    0.49520    0.05882   1.00
H2       0.51333    0.46791    0.04019   1.00
H2       0.67185    0.61630    -0.02092   1.00
H2       0.62325    0.52993    -0.02843   1.00
H2       0.58635    0.58186    -0.02842   1.00
H2       0.63547    0.47830    0.00248   1.00
H2       0.69493    0.56056    0.01132   1.00
H2       0.62577    0.50380    0.02677   1.00
C4       0.17134    0.31668    -0.00206   1.00
C4       0.19727    0.37200    0.01205   1.00
C3       0.13898    0.31597    -0.02058   1.00
C3       0.18792    0.42922    0.00996   1.00
C3       0.17688    0.25807    0.00258   1.00
C3       0.23488    0.37075    0.02926   1.00
C2       0.11725    0.20141    -0.02933   1.00
C2       0.24996    0.48110    0.04151   1.00
C3       0.11232    0.25980    -0.03379   1.00
C3       0.21407    0.48259    0.02418   1.00
C3       0.15080    0.20245    -0.01112   1.00
C3       0.25828    0.42361    0.04386   1.00
H1       0.13404    0.35634    -0.02505   1.00
H1       0.16148    0.43362    -0.00188   1.00
C5       0.20870    0.25551    0.02085   1.00
C5       0.24845    0.31656    0.03194   1.00
H1       0.08901    0.26198    -0.04690   1.00
H1       0.20625    0.52297    0.02179   1.00
H1       0.15682    0.16156    -0.00786   1.00
H1       0.28130    0.41981    0.05674   1.00
O3       0.20390    0.19500    0.02688   1.00
O3       0.29559    0.32087    0.04605   1.00
Si1      0.14304    0.14435    0.04229   1.00
Si1      0.37597    0.35887    0.03970   1.00
C6       0.15757    0.07480    0.04081   1.00
C6       0.16346    0.18213    0.06655   1.00
C6       0.06080    0.12176    0.03345   1.00
C6       0.39924    0.39544    0.01525   1.00
C6       0.41506    0.42311    0.05809   1.00
C6       0.40414    0.29987    0.04340   1.00
C6       0.16662    0.05353    0.01890   1.00
H2       0.20747    0.09534    0.04800   1.00
C6       0.10988    0.00606    0.05213   1.00
H2       0.21883    0.21386    0.06565   1.00
C6       0.13671    0.23144    0.07258   1.00
C6       0.14929    0.13519    0.08548   1.00
H2       0.06252    0.10744    0.01772   1.00
C6       -0.00121   0.05830    0.04347   1.00
C6       0.03833    0.17713    0.03279   1.00
C6       0.36505    0.34815    -0.00350   1.00
C6       0.40016    0.46377    0.01064   1.00
H2       0.45293    0.40982    0.01443   1.00
H2       0.39796    0.45905    0.05429   1.00
C6       0.39185    0.40122    0.08055   1.00
C6       0.49476    0.46495    0.05833   1.00
H2       0.41413    0.30227    0.05966   1.00
C6       0.35101    0.22362    0.03913   1.00
C6       0.47170    0.31393    0.03269   1.00
H2       0.20725    0.09646    0.01065   1.00
H2       0.11967    0.03420    0.01008   1.00
H2       0.18055    0.01377    0.01939   1.00
H2       0.13937    -0.01750   0.05714   1.00
H2       0.08560    0.01282    0.06545   1.00
H2       0.06946    -0.03112   0.04233   1.00
H2       0.16425    0.26209    0.08579   1.00
H2       0.14423    0.26735    0.06052   1.00
H2       0.08265    0.20316    0.07649   1.00
H2       0.17468    0.10519    0.08415   1.00
H2       0.16895    0.16526    0.09937   1.00
H2       0.09465    0.10073    0.08759   1.00
H2       -0.00017   0.06339    0.05996   1.00
H2       -0.05011   0.05103    0.03808   1.00
H2       -0.00171   0.01142    0.03961   1.00
H2       0.01621    0.18059    0.04714   1.00
H2       0.07963    0.22786    0.02930   1.00
H2       -0.00057   0.16410    0.02110   1.00
H2       0.31529    0.34230    -0.00683   1.00
H2       0.39650    0.36985    -0.01704   1.00
H2       0.35867    0.29762    -0.00137   1.00
H2       0.42460    0.48465    -0.00398   1.00
H2       0.34912    0.45690    0.00983   1.00
H2       0.42917    0.50300    0.02191   1.00
H2       0.40978    0.44615    0.09026   1.00
H2       0.33628    0.37256    0.08182   1.00
H2       0.41171    0.36985    0.08670   1.00
H2       0.51561    0.48418    0.04329   1.00
H2       0.51269    0.50934    0.06829   1.00
H2       0.51632    0.43436    0.06394   1.00
H2       0.33471    0.21488    0.02332   1.00
H2       0.37117    0.19010    0.04292   1.00
H2       0.30610    0.20794    0.04847   1.00
H2       0.48908    0.28003    0.03858   1.00
H2       0.46463    0.30563    0.01633   1.00
H2       0.51293    0.36592    0.03529   1.00
C4       0.14631    0.82982    -0.00200   1.00
C4       0.17544    0.80373    0.01215   1.00
C3       0.18339    0.87431    -0.01821   1.00
C3       0.24585    0.82435    0.01264   1.00
C3       0.07650    0.81158    0.00021   1.00
C3       0.13227    0.75410    0.02668   1.00
C2       0.08462    0.88308    -0.02938   1.00
C2       0.23068    0.74971    0.04156   1.00
C3       0.15355    0.90053    -0.03146   1.00
C3       0.27264    0.79764    0.02681   1.00
C3       0.04700    0.83757    -0.01354   1.00
C3       0.16077    0.73000    0.04138   1.00
H1       0.23310    0.88877    -0.02091   1.00
H1       0.27982    0.85969    0.00280   1.00
C5       0.03655    0.76728    0.01609   1.00
C5       0.06107    0.72918    0.02661   1.00
H1       0.18302    0.93289    -0.04281   1.00
H1       0.32386    0.81399    0.02633   1.00
H1       -0.00363   0.82254    -0.01211   1.00
H1       0.12993    0.69781    0.05248   1.00
O3       -0.02684   0.75890    0.02025   1.00
O3       0.01695    0.67211    0.03769   1.00
Si1      -0.03479   0.80629    0.03748   1.00
Si1      -0.01038   0.59688    0.02773   1.00
C6       -0.12116   0.78012    0.03273   1.00
C6       -0.02457   0.77744    0.06135   1.00
C6       0.01822    0.89454    0.03315   1.00
C6       0.02027    0.59199    0.00348   1.00
C6       0.01450    0.55595    0.04557   1.00
C6       -0.10013   0.55515    0.02758   1.00
C6       -0.14097   0.77921    0.00989   1.00
H2       -0.14694   0.72670    0.03739   1.00
C6       -0.15804   0.81283    0.04448   1.00
H2       -0.03921   0.72461    0.05809   1.00
C6       0.04873    0.81063    0.07064   1.00
C6       -0.07159   0.77406    0.07924   1.00
H2       0.00924    0.89910    0.01708   1.00
C6       0.00029    0.94402    0.04470   1.00
C6       0.09755    0.92795    0.03579   1.00
C6       0.00934    0.63075    -0.01444   1.00
C6       0.09472    0.60498    0.00123   1.00
H2       -0.01144   0.53798    -0.00018   1.00
H2       0.06989    0.58218    0.04412   1.00
C6       0.00047    0.56436    0.06835   1.00
C6       -0.01141   0.47840    0.04226   1.00
H2       -0.11450   0.53590    0.04303   1.00
C6       -0.13246   0.60105    0.02409   1.00
C6       -0.13954   0.49192    0.01331   1.00
H2       -0.12695   0.74795    0.00071   1.00
H2       -0.11571   0.83062    0.00349   1.00
H2       -0.19600   0.75755    0.00814   1.00
H2       -0.21177   0.77488    0.04676   1.00
H2       -0.13599   0.83225    0.05933   1.00
H2       -0.15712   0.85490    0.03611   1.00
H2       0.05054    0.77922    0.08296   1.00
H2       0.08645    0.81540    0.05954   1.00
H2       0.06440    0.86099    0.07689   1.00
H2       -0.12542   0.74290    0.07531   1.00
H2       -0.06379   0.75050    0.09270   1.00
H2       -0.06113   0.82499    0.08354   1.00
H2       -0.00340   0.93457    0.06103   1.00
H2       0.03846    0.99761    0.04220   1.00
H2       -0.04741   0.93888    0.03933   1.00
H2       0.11366    0.94394    0.05141   1.00
H2       0.11694    0.89462    0.03152   1.00
H2       0.12385    0.97348    0.02628   1.00
H2       0.04876    0.68433    -0.01481   1.00
H2       0.01144    0.60862    -0.02898   1.00
H2       -0.04004   0.62789    -0.01368   1.00
H2       0.10269    0.59075    -0.01395   1.00
H2       0.13293    0.65833    0.00339   1.00
H2       0.10535    0.57453    0.01184   1.00
H2       0.02776    0.54745    0.07831   1.00
H2       0.01837    0.61770    0.07209   1.00
H2       -0.05365   0.53466    0.07208   1.00
H2       -0.00182   0.46793    0.02682   1.00
H2       0.01518    0.46127    0.05245   1.00
H2       -0.06593   0.44734    0.04538   1.00
H2       -0.11951   0.62567    0.00926   1.00
H2       -0.18796   0.57200    0.02541   1.00
H2       -0.11414   0.64079    0.03554   1.00
H2       -0.19403   0.46458    0.01685   1.00
H2       -0.13400   0.50714    -0.00262   1.00
H2       -0.12176   0.45549    0.01507   1.00
C4       0.13997    0.31499    0.49858   1.00
C4       0.16886    0.37016    0.51276   1.00
C3       0.07099    0.28263    0.49208   1.00
C3       0.13025    0.39430    0.52322   1.00
C3       0.18163    0.28966    0.49059   1.00
C3       0.24032    0.40360    0.51679   1.00
C2       0.08450    0.20152    0.47063   1.00
C2       0.23080    0.48099    0.54155   1.00
C3       0.04387    0.22721    0.47858   1.00
C3       0.16044    0.44860    0.53708   1.00
C3       0.15365    0.23453    0.47670   1.00
C3       0.26921    0.45629    0.53146   1.00
H1       0.03848    0.29852    0.49690   1.00
H1       0.07900    0.37287    0.52118   1.00
C5       0.25104    0.31975    0.49646   1.00
C5       0.28251    0.38400    0.50634   1.00
H1       -0.00651   0.20553    0.47453   1.00
H1       0.13010    0.46427    0.54407   1.00
H1       0.18463    0.21814    0.47066   1.00
H1       0.31958    0.47676    0.53512   1.00
O3       0.28776    0.28831    0.49146   1.00
O3       0.35275    0.42387    0.50696   1.00
Si1      0.29267    0.23599    0.50751   1.00
Si1      0.39065    0.48712    0.49102   1.00
C6       0.33331    0.20567    0.49113   1.00
C6       0.34742    0.28553    0.52730   1.00
C6       0.21221    0.16933    0.51539   1.00
C6       0.33950    0.50341    0.47427   1.00
C6       0.43642    0.55784    0.50695   1.00
C6       0.44987    0.47416    0.47724   1.00
C6       0.30175    0.18401    0.46937   1.00
H2       0.38313    0.25111    0.48888   1.00
C6       0.34861    0.14836    0.49812   1.00
H2       0.37880    0.33456    0.51984   1.00
C6       0.31555    0.30089    0.54622   1.00
C6       0.39876    0.26504    0.53620   1.00
H2       0.18501    0.15150    0.50100   1.00
C6       0.20988    0.10560    0.52552   1.00
C6       0.16633    0.18579    0.52950   1.00
C6       0.28949    0.44452    0.45992   1.00
C6       0.29909    0.53784    0.48253   1.00
H2       0.37746    0.54210    0.46423   1.00
H2       0.39691    0.56467    0.51419   1.00
C6       0.47651    0.54815    0.52478   1.00
C6       0.48673    0.62742    0.49667   1.00
H2       0.49376    0.49276    0.48736   1.00
C6       0.42901    0.39863    0.47271   1.00
C6       0.47781    0.51384    0.45681   1.00
H2       0.29892    0.22533    0.46174   1.00
H2       0.25031    0.13981    0.47000   1.00
H2       0.33283    0.17091    0.45974   1.00
H2       0.39588    0.15636    0.49115   1.00
H2       0.35440    0.14718    0.51445   1.00
H2       0.30868    0.09760    0.49348   1.00
H2       0.35497    0.34296    0.55509   1.00
H2       0.27883    0.31632    0.54193   1.00
H2       0.29047    0.25661    0.55620   1.00
H2       0.43123    0.26268    0.52437   1.00
H2       0.43317    0.30266    0.54722   1.00
H2       0.37195    0.21581    0.54391   1.00
H2       0.24534    0.12057    0.53826   1.00
H2       0.15894    0.06921    0.53118   1.00
H2       0.22201    0.07712    0.51468   1.00
H2       0.17779    0.18480    0.54554   1.00
H2       0.17119    0.23508    0.52656   1.00
H2       0.11256    0.14771    0.52732   1.00
H2       0.24179    0.40986    0.46753   1.00
H2       0.27651    0.46520    0.44676   1.00
H2       0.31160    0.41483    0.45414   1.00
H2       0.27803    0.55320    0.47000   1.00
H2       0.25640    0.50365    0.49209   1.00
H2       0.33155    0.58406    0.49114   1.00
H2       0.49336    0.58989    0.53570   1.00
H2       0.44441    0.50093    0.53309   1.00
H2       0.52155    0.54706    0.51943   1.00
H2       0.46238    0.63950    0.48434   1.00
H2       0.50438    0.66904    0.50768   1.00
H2       0.53168    0.62737    0.49068   1.00
H2       0.38357    0.37322    0.46322   1.00
H2       0.47001    0.39489    0.46519   1.00
H2       0.41826    0.37037    0.48681   1.00
H2       0.52128    0.50974    0.45139   1.00
H2       0.43889    0.49369    0.44495   1.00
H2       0.49564    0.56806    0.45857   1.00
C4       0.68642    0.82513    0.49909   1.00
C4       0.63110    0.79920    0.51321   1.00
C3       0.73504    0.80302    0.49832   1.00
C3       0.62248    0.75328    0.52912   1.00
C3       0.69471    0.87682    0.48509   1.00
C3       0.58116    0.81980    0.51145   1.00
C2       0.79881    0.88250    0.47076   1.00
C2       0.51868    0.75029    0.54142   1.00
C3       0.78991    0.83116    0.48463   1.00
C3       0.56749    0.72898    0.54273   1.00
C3       0.74968    0.90364    0.47114   1.00
C3       0.52777    0.79701    0.52584   1.00
H1       0.73187    0.76566    0.50763   1.00
H1       0.65612    0.73648    0.53137   1.00
C5       0.64787    0.90117    0.48505   1.00
C5       0.58501    0.86347    0.49547   1.00
H1       0.82375    0.81350    0.48487   1.00
H1       0.56352    0.69540    0.55383   1.00
H1       0.75389    0.93933    0.46081   1.00
H1       0.49495    0.81563    0.52516   1.00
O3       0.66223    0.95845    0.47398   1.00
O3       0.53074    0.87314    0.49108   1.00
Si1      0.70059    1.03328    0.48484   1.00
Si1      0.47009    0.81852    0.47633   1.00
C6       0.71432    1.08222    0.46268   1.00
C6       0.64089    1.03778    0.50098   1.00
C6       0.77847    1.05266    0.49648   1.00
C6       0.47535    0.74770    0.46738   1.00
C6       0.39671    0.78983    0.49134   1.00
C6       0.46367    0.86474    0.45579   1.00
C6       0.74456    1.06296    0.44410   1.00
H2       0.66240    1.06801    0.45825   1.00
C6       0.75462    1.16224    0.46347   1.00
H2       0.59259    1.00126    0.49395   1.00
C6       0.63607    1.01394    0.52350   1.00
C6       0.63999    1.10636    0.50219   1.00
H2       0.80329    1.03899    0.48465   1.00
C6       0.82907    1.12927    0.50175   1.00
C6       0.77783    1.01289    0.51610   1.00
C6       0.54034    0.76175    0.45519   1.00
C6       0.45932    0.68729    0.48215   1.00
H2       0.43362    0.72509    0.45643   1.00
H2       0.40271    0.75924    0.50307   1.00
C6       0.38950    0.84613    0.50301   1.00
C6       0.32630    0.74260    0.48100   1.00
H2       0.43355    0.88628    0.46179   1.00
C6       0.53154    0.92739    0.44842   1.00
C6       0.42569    0.82439    0.43622   1.00
H2       0.71327    1.00910    0.44016   1.00
H2       0.79622    1.07317    0.44725   1.00
H2       0.74658    1.09196    0.43060   1.00
H2       0.73423    1.18274    0.45219   1.00
H2       0.75158    1.18231    0.47816   1.00
H2       0.80862    1.18355    0.45990   1.00
H2       0.58866    1.00546    0.53050   1.00
H2       0.63582    0.96588    0.52465   1.00
H2       0.67824    1.05222    0.53255   1.00
H2       0.63323    1.12277    0.48723   1.00
H2       0.59745    1.10088    0.51146   1.00
H2       0.68698    1.14674    0.50894   1.00
H2       0.80418    1.15076    0.51090   1.00
H2       0.87362    1.13579    0.51016   1.00
H2       0.84958    1.15977    0.48811   1.00
H2       0.77288    1.03671    0.52990   1.00
H2       0.73708    0.96024    0.51631   1.00
H2       0.82567    1.01220    0.51731   1.00
H2       0.58222    0.77054    0.46520   1.00
H2       0.52956    0.71788    0.44569   1.00
H2       0.55800    0.80550    0.44513   1.00
H2       0.45528    0.64372    0.47376   1.00
H2       0.49898    0.70104    0.49349   1.00
H2       0.41080    0.66886    0.48997   1.00
H2       0.34919    0.82294    0.51444   1.00
H2       0.43645    0.88089    0.51106   1.00
H2       0.37688    0.87629    0.49286   1.00
H2       0.32591    0.70033    0.47294   1.00
H2       0.28584    0.72021    0.49241   1.00
H2       0.31297    0.77099    0.47033   1.00
H2       0.56755    0.91269    0.44271   1.00
H2       0.52263    0.95549    0.43649   1.00
H2       0.55577    0.96260    0.46092   1.00
H2       0.41600    0.85656    0.42596   1.00
H2       0.45573    0.80673    0.42792   1.00
H2       0.37627    0.78023    0.43977   1.00
C4       0.17490    0.86125    0.49906   1.00
C4       0.20084    0.83188    0.51318   1.00
C3       0.19793    0.93214    0.49802   1.00
C3       0.24778    0.86949    0.52885   1.00
C3       0.12224    0.81767    0.48534   1.00
C3       0.17918    0.76103    0.51169   1.00
C2       0.11748    0.91627    0.47075   1.00
C2       0.24973    0.76843    0.54143   1.00
C3       0.16978    0.95889    0.48434   1.00
C3       0.27206    0.83881    0.54247   1.00
C3       0.09540    0.84581    0.47139   1.00
C3       0.20201    0.73051    0.52610   1.00
H1       0.23600    0.96644    0.50713   1.00
H1       0.26538    0.92018    0.53091   1.00
C5       0.09693    0.74631    0.48558   1.00
C5       0.13443    0.72083    0.49596   1.00
H1       0.18814    1.01052    0.48439   1.00
H1       0.30640    0.86866    0.55339   1.00
H1       0.05898    0.81416    0.46126   1.00
H1       0.18267    0.67893    0.52562   1.00
O3       0.03888    0.70345    0.47480   1.00
O3       0.12359    0.65633    0.49177   1.00
Si1      -0.03538   0.66843    0.48599   1.00
Si1      0.17692    0.64864    0.47688   1.00
C6       -0.08559   0.63267    0.46407   1.00
C6       -0.04008   0.60457    0.50232   1.00
C6       -0.05306   0.72828    0.49752   1.00
C6       0.24793    0.72373    0.46750   1.00
C6       0.20540    0.60386    0.49193   1.00
C6       0.12920    0.59534    0.45663   1.00
C6       -0.06662   0.68135    0.44529   1.00
H2       -0.07233   0.59422    0.45970   1.00
C6       -0.16555   0.59399    0.46521   1.00
H2       -0.00440   0.59176    0.49521   1.00
C6       -0.01500   0.62445    0.52470   1.00
C6       -0.10915   0.53572    0.50393   1.00
H2       -0.03948   0.76628    0.48553   1.00
C6       -0.12920   0.70357    0.50308   1.00
C6       -0.01201   0.76803    0.51690   1.00
C6       0.23422    0.77473    0.45521   1.00
C6       0.30930    0.76820    0.48196   1.00
H2       0.26950    0.70357    0.45655   1.00
H2       0.23691    0.64081    0.50346   1.00
C6       0.14911    0.54132    0.50395   1.00
C6       0.25134    0.57922    0.48152   1.00
H2       0.10730    0.54391    0.46284   1.00
C6       0.06679    0.60128    0.44944   1.00
C6       0.16828    0.59613    0.43694   1.00
H2       -0.01303   0.70303    0.44113   1.00
H2       -0.07591   0.72346    0.44836   1.00
H2       -0.09649   0.65398    0.43196   1.00
H2       -0.18710   0.55255    0.45411   1.00
H2       -0.18509   0.57173    0.48002   1.00
H2       -0.18633   0.62711    0.46161   1.00
H2       -0.00687   0.58541    0.53179   1.00
H2       0.03350    0.67191    0.52558   1.00
H2       -0.05244   0.62944    0.53386   1.00
H2       -0.12654   0.51191    0.48909   1.00
H2       -0.10386   0.49872    0.51328   1.00
H2       -0.14875   0.54337    0.51077   1.00
H2       -0.15080   0.65762    0.51243   1.00
H2       -0.13463   0.74242    0.51141   1.00
H2       -0.16029   0.69334    0.48957   1.00
H2       -0.03540   0.74008    0.53085   1.00
H2       0.04041    0.77916    0.51692   1.00
H2       -0.01048   0.81699    0.51797   1.00
H2       0.22654    0.80871    0.46516   1.00
H2       0.27778    0.80690    0.44549   1.00
H2       0.18990    0.74866    0.44537   1.00
H2       0.35273    0.80692    0.47334   1.00
H2       0.29665    0.79508    0.49327   1.00
H2       0.32748    0.73795    0.48982   1.00
H2       0.17241    0.52424    0.51535   1.00
H2       0.11524    0.55457    0.51206   1.00
H2       0.11801    0.49821    0.49401   1.00
H2       0.29353    0.62035    0.47321   1.00
H2       0.27382    0.56118    0.49291   1.00
H2       0.22198    0.53712    0.47105   1.00
H2       0.08190    0.65187    0.44354   1.00
H2       0.03772    0.56385    0.43769   1.00
H2       0.03232    0.59139    0.46207   1.00
H2       0.13518    0.55396    0.42689   1.00
H2       0.18615    0.64352    0.42845   1.00
H2       0.21216    0.59028    0.44037   1.00
C4       0.31291    0.14755    1.00075   1.00
C4       0.36952    0.17620    0.98708   1.00
C3       0.29922    0.18681    1.01477   1.00
C3       0.42142    0.24588    0.98733   1.00
C3       0.26770    0.07554    1.00076   1.00
C3       0.37504    0.13336    0.97222   1.00
C2       0.19931    0.08540    1.02860   1.00
C2       0.48320    0.22990    0.95922   1.00
C3       0.24424    0.15660    1.02839   1.00
C3       0.47637    0.27217    0.97367   1.00
C3       0.21178    0.04619    1.01436   1.00
C3       0.43234    0.16022    0.95917   1.00
H1       0.32866    0.23853    1.01545   1.00
H1       0.42107    0.27949    0.99753   1.00
C5       0.27848    0.03335    0.98712   1.00
C5       0.32379    0.06387    0.97057   1.00
H1       0.23716    0.18752    1.03829   1.00
H1       0.51208    0.32310    0.97444   1.00
H1       0.17869    -0.00531   1.01380   1.00
H1       0.43780    0.12797    0.94950   1.00
O3       0.24202    -0.03646   0.98943   1.00
O3       0.32091    0.02525    0.95396   1.00
Si1      0.27404    -0.07470   1.00268   1.00
Si1      0.28171    0.02812    0.93354   1.00
C6       0.20058    -0.15649   1.00281   1.00
C6       0.33983    -0.07376   0.98814   1.00
C6       0.29756    -0.04208   1.02752   1.00
C6       0.24726    0.08305    0.93337   1.00
C6       0.34481    0.05394    0.91475   1.00
C6       0.21761    -0.05605   0.92808   1.00
C6       0.13196    -0.15905   1.00830   1.00
H2       0.19582    -0.17103   0.98685   1.00
C6       0.19919    -0.21701   1.01485   1.00
H2       0.32453    -0.06984   0.97273   1.00
C6       0.41394    -0.01224   0.99071   1.00
C6       0.34767    -0.13863   0.98820   1.00
H2       0.25263    -0.04017   1.03263   1.00
C6       0.30867    -0.08724   1.04335   1.00
C6       0.36040    0.03139    1.03077   1.00
C6       0.19441    0.07321    0.95019   1.00
C6       0.29613    0.16186    0.93123   1.00
H2       0.21845    0.06905    0.91920   1.00
H2       0.38070    0.10700    0.91855   1.00
C6       0.38785    0.01721    0.91482   1.00
C6       0.32255    0.05366    0.89228   1.00
H2       0.24474    -0.07813   0.92039   1.00
C6       0.18269    -0.10340   0.94667   1.00
C6       0.15858    -0.06673   0.91344   1.00
H2       0.12249    -0.12605   0.99838   1.00
H2       0.13235    -0.14299   1.02396   1.00
H2       0.08849    -0.21058   1.00653   1.00
H2       0.16720    -0.26512   1.00691   1.00
H2       0.24943    -0.21147   1.01661   1.00
H2       0.17748    -0.22284   1.03000   1.00
H2       0.44635    -0.01016   0.97811   1.00
H2       0.41524    0.03644    0.99076   1.00
H2       0.43724    -0.01669   1.00469   1.00
H2       0.30051    -0.18397   0.98359   1.00
H2       0.38672    -0.13350   0.97743   1.00
H2       0.36248    -0.14734   1.00318   1.00
H2       0.34515    -0.10158   1.03775   1.00
H2       0.32769    -0.06100   1.05786   1.00
H2       0.26104    -0.13318   1.04695   1.00
H2       0.40827    0.03093    1.03182   1.00
H2       0.36663    0.06690    1.01882   1.00
H2       0.35454    0.05305    1.04495   1.00
H2       0.21939    0.09905    0.96421   1.00
H2       0.16290    0.09464    0.94528   1.00
H2       0.15991    0.01966    0.95362   1.00
H2       0.26693    0.18765    0.92848   1.00
H2       0.32622    0.18438    0.94485   1.00
H2       0.33095    0.17466    0.91843   1.00
H2       0.43262    0.04430    0.90505   1.00
H2       0.40668    0.01629    0.93001   1.00
H2       0.35851    -0.03521   0.90937   1.00
H2       0.29373    0.08019    0.89066   1.00
H2       0.36734    0.07987    0.88247   1.00
H2       0.29155    0.00175    0.88653   1.00
H2       0.15566    -0.08513   0.95614   1.00
H2       0.14658    -0.15556   0.94199   1.00
H2       0.22090    -0.10576   0.95603   1.00
H2       0.12838    -0.12016   0.90883   1.00
H2       0.12405    -0.05257   0.92070   1.00
H2       0.17809    -0.03691   0.89958   1.00
C4       0.82553    0.68715    1.00065   1.00
C4       0.79971    0.63171    0.98658   1.00
C3       0.81328    0.74264    0.99903   1.00
C3       0.76441    0.62931    0.96852   1.00
C3       0.86685    0.68823    1.01716   1.00
C3       0.80922    0.57510    0.99065   1.00
C2       0.88239    0.79904    1.02916   1.00
C2       0.75040    0.51845    0.95866   1.00
C3       0.84122    0.79725    1.01281   1.00
C3       0.73986    0.57397    0.95503   1.00
C3       0.89350    0.74316    1.03112   1.00
C3       0.78666    0.52122    0.97643   1.00
H1       0.78351    0.74490    0.98782   1.00
H1       0.75586    0.66787    0.96456   1.00
C5       0.88104    0.63431    1.01967   1.00
C5       0.84169    0.57275    1.00876   1.00
H1       0.83101    0.83622    1.01079   1.00
H1       0.71418    0.57473    0.94229   1.00
H1       0.92148    0.74230    1.04321   1.00
H1       0.79769    0.48321    0.97892   1.00
O3       0.92973    0.64093    1.03345   1.00
O3       0.83946    0.51331    1.01492   1.00
Si1      1.00827    0.66987    1.02601   1.00
Si1      0.77363    0.45744    1.02784   1.00
C6       1.04423    0.67742    1.05030   1.00
C6       1.01000    0.60489    1.01176   1.00
C6       1.04382    0.74980    1.01378   1.00
C6       0.70673    0.47446    1.03259   1.00
C6       0.74277    0.38309    1.01316   1.00
C6       0.80461    0.44382    1.05084   1.00
C6       1.02329    0.71328    1.06684   1.00
H2       1.02090    0.62426    1.05510   1.00
C6       1.12308    0.70789    1.05305   1.00
H2       0.96602    0.55918    1.01779   1.00
C6       0.99820    0.60291    0.98832   1.00
C6       1.07201    0.59309    1.01442   1.00
H2       1.03013    0.77880    1.02411   1.00
C6       1.12337    0.79170    1.01168   1.00
C6       1.01706    0.75487    0.99222   1.00
C6       0.72436    0.54206    1.04387   1.00
C6       0.65667    0.46645    1.01502   1.00
H2       0.67452    0.43369    1.04310   1.00
H2       0.72170    0.39403    0.99974   1.00
C6       0.79758    0.36620    1.00497   1.00
C6       0.68403    0.31552    1.02238   1.00
H2       0.82179    0.40806    1.04684   1.00
C6       0.86860    0.50673    1.06001   1.00
C6       0.75308    0.41008    1.06878   1.00
H2       0.96795    0.68841    1.06845   1.00
H2       1.04238    0.76684    1.06307   1.00
H2       1.04343    0.71122    1.08173   1.00
H2       1.13294    0.68314    1.06580   1.00
H2       1.14741    0.70109    1.03974   1.00
H2       1.14942    0.76237    1.05648   1.00
H2       0.98605    0.55337    0.98206   1.00
H2       0.95551    0.61018    0.98450   1.00
H2       1.04368    0.64174    0.98054   1.00
H2       1.07873    0.58367    1.03025   1.00
H2       1.06441    0.54822    1.00598   1.00
H2       1.11911    0.63681    1.00892   1.00
H2       1.14282    0.76145    1.00444   1.00
H2       1.14042    0.83809    1.00269   1.00
H2       1.14782    0.80918    1.02635   1.00
H2       1.04402    0.74546    0.98005   1.00
H2       0.96318    0.71958    0.99003   1.00
H2       1.02483    0.80611    0.98986   1.00
H2       0.74375    0.58520    1.03349   1.00
H2       0.67879    0.53770    1.05104   1.00
H2       0.76191    0.55432    1.05581   1.00
H2       0.61299    0.46921    1.02094   1.00
H2       0.68076    0.50640    1.00366   1.00
H2       0.63577    0.41726    1.00741   1.00
H2       0.77542    0.32645    0.99335   1.00
H2       0.84021    0.41072    0.99786   1.00
H2       0.81790    0.34822    1.01696   1.00
H2       0.64226    0.32197    1.02798   1.00
H2       0.66257    0.27547    1.01083   1.00
H2       0.70242    0.29707    1.03481   1.00
H2       0.85865    0.54770    1.06397   1.00
H2       0.88686    0.49308    1.07357   1.00
H2       0.90998    0.52676    1.04908   1.00
H2       0.77566    0.39492    1.08093   1.00
H2       0.73830    0.44520    1.07528   1.00
H2       0.70695    0.36410    1.06398   1.00
C4       0.86125    0.17491    1.00094   1.00
C4       0.83188    0.20085    0.98682   1.00
C3       0.93215    0.19805    1.00201   1.00
C3       0.86953    0.24790    0.97118   1.00
C3       0.81764    0.12213    1.01463   1.00
C3       0.76099    0.17906    0.98828   1.00
C2       0.91626    0.11748    1.02925   1.00
C2       0.76844    0.24973    0.95857   1.00
C3       0.95890    0.16990    1.01569   1.00
C3       0.83885    0.27219    0.95756   1.00
C3       0.84578    0.09529    1.02858   1.00
C3       0.73048    0.20189    0.97387   1.00
H1       0.96646    0.23620    0.99293   1.00
H1       0.92024    0.26560    0.96915   1.00
C5       0.74626    0.09671    1.01436   1.00
C5       0.72075    0.13418    1.00398   1.00
H1       1.01055    0.18833    1.01567   1.00
H1       0.86872    0.30662    0.94666   1.00
H1       0.81411    0.05878    1.03868   1.00
H1       0.67889    0.18247    0.97433   1.00
O3       0.70341    0.03856    1.02510   1.00
O3       0.65618    0.12319    1.00814   1.00
Si1      0.66858    -0.03563   1.01387   1.00
Si1      0.64829    0.17636    1.02305   1.00
C6       0.63275    -0.08599   1.03576   1.00
C6       0.60476    -0.04035   0.99752   1.00
C6       0.72859    -0.05310   1.00236   1.00
C6       0.72326    0.24740    1.03248   1.00
C6       0.60349    0.20481    1.00800   1.00
C6       0.59491    0.12846    1.04326   1.00
C6       0.68133    -0.06706   1.05456   1.00
H2       0.59421    -0.07285   1.04012   1.00
C6       0.59419    -0.16594   1.03458   1.00
H2       0.59182    -0.00478   1.00464   1.00
C6       0.62474    -0.01512   0.97515   1.00
C6       0.53599    -0.10948   0.99586   1.00
H2       0.76652    -0.03953   1.01436   1.00
C6       0.70404    -0.12918   0.99675   1.00
C6       0.76841    -0.01189   0.98300   1.00
C6       0.77426    0.23373    1.04478   1.00
C6       0.76773    0.30888    1.01806   1.00
H2       0.70297    0.26884    1.04344   1.00
H2       0.64048    0.23644    0.99649   1.00
C6       0.54107    0.14853    0.99594   1.00
C6       0.57868    0.25060    1.01842   1.00
H2       0.54351    0.10652    1.03703   1.00
C6       0.60094    0.06608    1.05044   1.00
C6       0.59551    0.16738    1.06297   1.00
H2       0.70290    -0.01351   1.05875   1.00
H2       0.72351    -0.07624   1.05150   1.00
H2       0.65391    -0.09703   1.06787   1.00
H2       0.55270    -0.18763   1.04565   1.00
H2       0.57204    -0.18542   1.01975   1.00
H2       0.62737    -0.18666   1.03818   1.00
H2       0.58569    -0.00703   0.96805   1.00
H2       0.67216    0.03343    0.97431   1.00
H2       0.62986    -0.05246   0.96599   1.00
H2       0.51210    -0.12700   1.01069   1.00
H2       0.49899    -0.10421   0.98649   1.00
H2       0.54377    -0.14899   0.98900   1.00
H2       0.65814    -0.15079   0.98739   1.00
H2       0.74299    -0.13448   0.98844   1.00
H2       0.69378    -0.16034   1.01025   1.00
H2       0.74057    -0.03524   0.96903   1.00
H2       0.77945    0.04049    0.98301   1.00
H2       0.81742    -0.01026   0.98195   1.00
H2       0.80835    0.22618    1.03484   1.00
H2       0.80632    0.27725    1.05453   1.00
H2       0.74819    0.18934    1.05460   1.00
H2       0.80635    0.35229    1.02671   1.00
H2       0.79474    0.29636    1.00675   1.00
H2       0.73746    0.32703    1.01020   1.00
H2       0.52400    0.17184    0.98454   1.00
H2       0.55445    0.11478    0.98781   1.00
H2       0.49793    0.11732    1.00585   1.00
H2       0.61972    0.29278    1.02676   1.00
H2       0.56065    0.27309    1.00703   1.00
H2       0.53653    0.22112    1.02886   1.00
H2       0.65151    0.08124    1.05636   1.00
H2       0.56345    0.03690    1.06216   1.00
H2       0.59118    0.03170    1.03779   1.00
H2       0.55330    0.13417    1.07299   1.00
H2       0.64285    0.18528    1.07148   1.00
H2       0.58958    0.21123    1.05955   1.00
C4       0.52099    1.01669    0.83538   1.00
C4       0.49168    0.96141    0.82125   1.00
C3       0.48716    1.01951    0.85318   1.00
C3       0.42346    0.90657    0.82252   1.00
C3       0.58740    1.07309    0.83150   1.00
C3       0.53236    0.96019    0.80489   1.00
C2       0.58235    1.13186    0.86268   1.00
C2       0.43569    0.85229    0.79180   1.00
C3       0.51679    1.07565    0.86639   1.00
C3       0.39640    0.85316    0.80832   1.00
C3       0.61693    1.12866    0.84522   1.00
C3       0.50322    0.90744    0.79026   1.00
H1       0.44010    0.98075    0.85709   1.00
H1       0.39130    0.90402    0.83372   1.00
C5       0.62401    1.07348    0.81398   1.00
C5       0.60164    1.01184    0.80310   1.00
H1       0.48970    1.07507    0.87895   1.00
H1       0.34693    0.81455    0.81009   1.00
H1       0.66536    1.16788    0.84253   1.00
H1       0.53166    0.90962    0.77793   1.00
O3       0.68262    1.13232    0.80851   1.00
O3       0.64528    1.00470    0.78997   1.00
Si1      0.67857    1.18488    0.79237   1.00
Si1      0.68280    0.96313    0.79762   1.00
C6       0.76383    1.25138    0.79491   1.00
C6       0.66376    1.14682    0.76818   1.00
C6       0.62072    1.21179    0.79968   1.00
C6       0.66340    0.92655    0.82213   1.00
C6       0.65781    0.89838    0.77941   1.00
C6       0.77132    1.01855    0.79518   1.00
C6       0.79057    1.27166    0.81720   1.00
H2       0.79223    1.22843    0.78858   1.00
C6       0.79038    1.32072    0.78333   1.00
H2       0.68452    1.11277    0.76992   1.00
C6       0.58829    1.10060    0.76106   1.00
C6       0.70164    1.19295    0.74949   1.00
H2       0.63433    1.22571    0.81556   1.00
C6       0.62778    1.27688    0.78903   1.00
C6       0.54198    1.15951    0.79926   1.00
C6       0.67564    0.97459    0.84062   1.00
C6       0.59325    0.86035    0.82601   1.00
H2       0.70038    0.90941    0.82394   1.00
H2       0.60368    0.86463    0.78246   1.00
C6       0.66183    0.92075    0.75674   1.00
C6       0.69189    0.85306    0.78043   1.00
H2       0.78137    1.01546    0.77913   1.00
C6       0.79757    1.09563    0.79912   1.00
C6       0.82029    1.00098    0.80716   1.00
H2       0.78428    1.22772    0.82584   1.00
H2       0.76350    1.29330    0.82520   1.00
H2       0.84499    1.30934    0.81744   1.00
H2       0.84398    1.34172    0.77922   1.00
H2       0.76231    1.31551    0.76945   1.00
H2       0.78779    1.35926    0.79264   1.00
H2       0.58574    1.06913    0.74813   1.00
H2       0.55651    1.06549    0.77287   1.00
H2       0.56578    1.13121    0.75631   1.00
H2       0.75679    1.22050    0.75169   1.00
H2       0.69220    1.16251    0.73572   1.00
H2       0.68462    1.22959    0.74660   1.00
H2       0.62645    1.27172    0.77254   1.00
H2       0.58701    1.28691    0.79344   1.00
H2       0.67479    1.32236    0.79338   1.00
H2       0.51957    1.15735    0.78442   1.00
H2       0.52915    1.10792    0.80307   1.00
H2       0.51571    1.17458    0.81023   1.00
H2       0.63296    0.98328    0.84295   1.00
H2       0.68136    0.95183    0.85458   1.00
H2       0.72179    1.02390    0.83891   1.00
H2       0.59283    0.83881    0.84090   1.00
H2       0.55082    0.87008    0.82580   1.00
H2       0.58296    0.82051    0.81496   1.00
H2       0.63470    0.87606    0.74695   1.00
H2       0.63779    0.95183    0.75459   1.00
H2       0.71435    0.94988    0.75137   1.00
H2       0.68963    0.83333    0.79568   1.00
H2       0.66536    0.80889    0.77040   1.00
H2       0.74516    0.88134    0.77562   1.00
H2       0.78802    1.10524    0.81465   1.00
H2       0.85218    1.12686    0.79613   1.00
H2       0.77193    1.11344    0.78901   1.00
H2       0.87297    1.03271    0.80202   1.00
H2       0.81910    1.00960    0.82342   1.00
H2       0.80717    0.94812    0.80489   1.00
C4       -0.01684   0.50351    0.83533   1.00
C4       0.03837    0.52960    0.82118   1.00
C3       -0.02423   0.45904    0.85155   1.00
C3       0.08818    0.50900    0.82069   1.00
C3       -0.06842   0.52173    0.83311   1.00
C3       0.04483    0.57922    0.80664   1.00
C2       -0.13178   0.45025    0.86271   1.00
C2       0.14763    0.58362    0.79177   1.00
C3       -0.08029   0.43282    0.86479   1.00
C3       0.14169    0.53571    0.80652   1.00
C3       -0.12391   0.49574    0.84687   1.00
C3       0.09742    0.60331    0.79195   1.00
H1       0.01102    0.44459    0.85425   1.00
H1       0.08682    0.47367    0.83054   1.00
C5       -0.06409   0.56602    0.81723   1.00
C5       -0.00147   0.60411    0.80671   1.00
H1       -0.08318   0.40047    0.87615   1.00
H1       0.17656    0.51937    0.80700   1.00
H1       -0.15952   0.51076    0.84543   1.00
H1       0.09877    0.63549    0.78084   1.00
O3       -0.11910   0.57438    0.81307   1.00
O3       0.01147    0.66117    0.79562   1.00
Si1      -0.17443   0.52696    0.79584   1.00
Si1      0.05936    0.73641    0.80559   1.00
C6       -0.23466   0.55311    0.80059   1.00
C6       -0.13538   0.55580    0.77197   1.00
C6       -0.20966   0.43871    0.80018   1.00
C6       0.09490    0.74134    0.82983   1.00
C6       0.12516    0.77734    0.78774   1.00
C6       0.01132    0.77813    0.80573   1.00
C6       -0.25356   0.55404    0.82342   1.00
H2       -0.20702   0.60653    0.79592   1.00
C6       -0.30425   0.52038    0.78883   1.00
H2       -0.09718   0.60864    0.77522   1.00
C6       -0.09525   0.52261    0.76269   1.00
C6       -0.17902   0.55915    0.75407   1.00
H2       -0.22320   0.43417    0.81625   1.00
C6       -0.27706   0.38922    0.78862   1.00
C6       -0.16372   0.40532    0.79754   1.00
C6       0.04521    0.70258    0.84775   1.00
C6       0.15637    0.72836    0.83209   1.00
H2       0.11718    0.79535    0.83349   1.00
H2       0.15434    0.75113    0.78919   1.00
C6       0.10272    0.76891    0.76496   1.00
C6       0.17678    0.85489    0.79105   1.00
H2       0.01620    0.79737    0.79027   1.00
C6       -0.06691   0.73221    0.80921   1.00
C6       0.03513    0.84137    0.81999   1.00
H2       -0.20828   0.58532    0.83260   1.00
H2       -0.27970   0.50263    0.82982   1.00
H2       -0.28693   0.57569    0.82517   1.00
H2       -0.32004   0.55832    0.78655   1.00
H2       -0.30160   0.50095    0.77399   1.00
H2       -0.34539   0.47832    0.79721   1.00
H2       -0.06203   0.55402    0.75037   1.00
H2       -0.06229   0.51787    0.77379   1.00
H2       -0.12993   0.47225    0.75644   1.00
H2       -0.20171   0.59030    0.75800   1.00
H2       -0.14767   0.58270    0.74061   1.00
H2       -0.21948   0.50822    0.74978   1.00
H2       -0.27131   0.39865    0.77230   1.00
H2       -0.29247   0.33563    0.79113   1.00
H2       -0.31963   0.39435    0.79399   1.00
H2       -0.16361   0.38932    0.78193   1.00
H2       -0.11101   0.43866    0.80181   1.00
H2       -0.18295   0.35980    0.80705   1.00
H2       0.03106    0.64901    0.84813   1.00
H2       0.06944    0.72473    0.86229   1.00
H2       -0.00131   0.70543    0.84699   1.00
H2       0.17857    0.74261    0.84727   1.00
H2       0.14124    0.67501    0.82993   1.00
H2       0.19745    0.75882    0.82147   1.00
H2       0.14693    0.78582    0.75500   1.00
H2       0.06729    0.71556    0.76123   1.00
H2       0.07829    0.79859    0.76123   1.00
H2       0.19685    0.86539    0.80648   1.00
H2       0.22050    0.87203    0.78086   1.00
H2       0.15331    0.88594    0.78793   1.00
H2       -0.07858   0.70761    0.82404   1.00
H2       -0.09338   0.76125    0.80789   1.00
H2       -0.08833   0.69246    0.79777   1.00
H2       0.00797    0.86870    0.81644   1.00
H2       0.02545    0.82616    0.83592   1.00
H2       0.08933    0.87781    0.81823   1.00
C4       0.49648    0.47963    0.83533   1.00
C4       0.47039    0.50876    0.82118   1.00
C3       0.54080    0.51665    0.85158   1.00
C3       0.49086    0.57914    0.82073   1.00
C3       0.47840    0.40988    0.83308   1.00
C3       0.42091    0.46563    0.80661   1.00
C2       0.54974    0.41795    0.86271   1.00
C2       0.41639    0.56401    0.79177   1.00
C3       0.56703    0.48682    0.86482   1.00
C3       0.46416    0.60594    0.80656   1.00
C3       0.50439    0.38037    0.84683   1.00
C3       0.39683    0.49414    0.79191   1.00
H1       0.55514    0.56631    0.85431   1.00
H1       0.52608    0.61308    0.83060   1.00
C5       0.43426    0.36998    0.81716   1.00
C5       0.39614    0.39445    0.80664   1.00
H1       0.59927    0.51625    0.87621   1.00
H1       0.48040    0.65713    0.80707   1.00
H1       0.48948    0.32978    0.84537   1.00
H1       0.36475    0.46335    0.78079   1.00
O3       0.42606    0.30668    0.81297   1.00
O3       0.33919    0.35033    0.79551   1.00
Si1      0.47366    0.29899    0.79577   1.00
Si1      0.26386    0.32278    0.80543   1.00
C6       0.44764    0.21262    0.80047   1.00
C6       0.44493    0.30929    0.77189   1.00
C6       0.56186    0.35211    0.80016   1.00
C6       0.25870    0.35320    0.82969   1.00
C6       0.22295    0.34765    0.78758   1.00
C6       0.22229    0.23303    0.80552   1.00
C6       0.44660    0.19266    0.82329   1.00
H2       0.39425    0.18678    0.79577   1.00
C6       0.48057    0.17596    0.78871   1.00
H2       0.39204    0.29452    0.77511   1.00
C6       0.47805    0.38266    0.76265   1.00
C6       0.44180    0.26246    0.75397   1.00
H2       0.56632    0.34304    0.81622   1.00
C6       0.61153    0.33441    0.78862   1.00
C6       0.59513    0.43145    0.79756   1.00
C6       0.29740    0.34224    0.84762   1.00
C6       0.27151    0.42757    0.83198   1.00
H2       0.20468    0.32136    0.83331   1.00
H2       0.24907    0.40303    0.78906   1.00
C6       0.23158    0.33383    0.76480   1.00
C6       0.14535    0.32156    0.79085   1.00
H2       0.20317    0.21875    0.79006   1.00
C6       0.26831    0.20083    0.80902   1.00
C6       0.15898    0.19341    0.81974   1.00
H2       0.41520    0.20652    0.83247   1.00
H2       0.49797    0.21797    0.82973   1.00
H2       0.42504    0.13764    0.82501   1.00
H2       0.44272    0.12222    0.78639   1.00
H2       0.50007    0.19814    0.77389   1.00
H2       0.52262    0.17691    0.79711   1.00
H2       0.44669    0.38448    0.75031   1.00
H2       0.48265    0.42026    0.77376   1.00
H2       0.52848    0.39848    0.75643   1.00
H2       0.41070    0.20859    0.75786   1.00
H2       0.41830    0.27029    0.74050   1.00
H2       0.49279    0.27306    0.74970   1.00
H2       0.60220    0.33083    0.77229   1.00
H2       0.66507    0.37265    0.79116   1.00
H2       0.60646    0.28672    0.79397   1.00
H2       0.61122    0.44769    0.78196   1.00
H2       0.56168    0.45070    0.80183   1.00
H2       0.64058    0.45776    0.80710   1.00
H2       0.35095    0.38174    0.84803   1.00
H2       0.27513    0.34418    0.86215   1.00
H2       0.29466    0.29292    0.84684   1.00
H2       0.25713    0.43538    0.84716   1.00
H2       0.32485    0.46588    0.82985   1.00
H2       0.24107    0.43819    0.82135   1.00
H2       0.21466    0.36112    0.75484   1.00
H2       0.28497    0.35187    0.76110   1.00
H2       0.20201    0.27974    0.76104   1.00
H2       0.13472    0.33100    0.80628   1.00
H2       0.12821    0.34815    0.78066   1.00
H2       0.11441    0.26705    0.78769   1.00
H2       0.29282    0.21371    0.82386   1.00
H2       0.23937    0.14533    0.80766   1.00
H2       0.30814    0.21931    0.79760   1.00
H2       0.13176    0.13895    0.81617   1.00
H2       0.17409    0.19887    0.83568   1.00
H2       0.12247    0.21109    0.81798   1.00
C4       0.35476    0.19503    0.33301   1.00
C4       0.29804    0.16530    0.34663   1.00
C3       0.37974    0.26002    0.32387   1.00
C3       0.25686    0.19469    0.35102   1.00
C3       0.38813    0.15771    0.32789   1.00
C3       0.28110    0.10276    0.35656   1.00
C2       0.46760    0.25015    0.30483   1.00
C2       0.18323    0.10121    0.37401   1.00
C3       0.43434    0.28669    0.31008   1.00
C3       0.20142    0.16389    0.36447   1.00
C3       0.44395    0.18607    0.31424   1.00
C3       0.22328    0.07109    0.36939   1.00
H1       0.35914    0.28998    0.32702   1.00
H1       0.26566    0.23911    0.34448   1.00
C5       0.36572    0.09245    0.33650   1.00
C5       0.32148    0.07180    0.35351   1.00
H1       0.44986    0.33374    0.30384   1.00
H1       0.17382    0.18777    0.36720   1.00
H1       0.46859    0.15954    0.31114   1.00
H1       0.20926    0.02421    0.37535   1.00
O3       0.39024    0.05200    0.32903   1.00
O3       0.31450    0.01934    0.36586   1.00
Si1      0.34802    -0.00403   0.31136   1.00
Si1      0.35604    0.03810    0.38729   1.00
C6       0.41007    -0.02751   0.30630   1.00
C6       0.27502    -0.07146   0.32279   1.00
C6       0.33189    0.03167    0.28972   1.00
C6       0.40585    0.12499    0.39410   1.00
C6       0.29112    -0.00453   0.40529   1.00
C6       0.40683    -0.00066   0.38700   1.00
C6       0.48495    0.03282    0.30352   1.00
H2       0.41055    -0.05250   0.32042   1.00
C6       0.39927    -0.07963   0.28900   1.00
H2       0.29116    -0.06760   0.33857   1.00
C6       0.20800    -0.06752   0.32329   1.00
C6       0.25206    -0.14629   0.31619   1.00
H2       0.38185    0.07625    0.28679   1.00
C6       0.31120    -0.01164   0.26975   1.00
C6       0.27990    0.05834    0.29116   1.00
C6       0.46294    0.17402    0.37911   1.00
C6       0.36979    0.16451    0.40178   1.00
H2       0.43288    0.12256    0.40750   1.00
H2       0.26407    0.02404    0.40532   1.00
C6       0.23597    -0.07968   0.39999   1.00
C6       0.31327    -0.00526   0.42771   1.00
H2       0.37158    -0.05356   0.39118   1.00
C6       0.43618    -0.00478   0.36599   1.00
C6       0.46755    0.02566    0.40237   1.00
H2       0.50171    0.06705    0.31659   1.00
H2       0.48955    0.06285    0.29002   1.00
H2       0.52081    0.01404    0.30201   1.00
H2       0.42277    -0.10987   0.29326   1.00
H2       0.34580    -0.11497   0.28584   1.00
H2       0.42310    -0.05426   0.27476   1.00
H2       0.17191    -0.10370   0.33429   1.00
H2       0.21740    -0.01737   0.32786   1.00
H2       0.18287    -0.07996   0.30851   1.00
H2       0.29306    -0.15787   0.31814   1.00
H2       0.20955    -0.18334   0.32547   1.00
H2       0.23535    -0.15513   0.30039   1.00
H2       0.26765    -0.06255   0.27230   1.00
H2       0.29762    0.01228    0.25759   1.00
H2       0.35334    -0.01639   0.26378   1.00
H2       0.22761    0.01808    0.28820   1.00
H2       0.27987    0.08011    0.30579   1.00
H2       0.29242    0.09830    0.27987   1.00
H2       0.44270    0.19204    0.36714   1.00
H2       0.50165    0.21911    0.38714   1.00
H2       0.48904    0.14997    0.37205   1.00
H2       0.40714    0.21408    0.40805   1.00
H2       0.34320    0.17434    0.38967   1.00
H2       0.33341    0.13737    0.41391   1.00
H2       0.19218    -0.09764   0.41018   1.00
H2       0.21662    -0.08357   0.38457   1.00
H2       0.25585    -0.11457   0.40135   1.00
H2       0.35048    0.04575    0.43296   1.00
H2       0.26927    -0.02419   0.43787   1.00
H2       0.33506    -0.03845   0.42948   1.00
H2       0.47064    0.04555    0.35973   1.00
H2       0.46359    -0.03299   0.36692   1.00
H2       0.39480    -0.03168   0.35527   1.00
H2       0.48823    -0.00883   0.40286   1.00
H2       0.50908    0.07615    0.39814   1.00
H2       0.45158    0.02852    0.41776   1.00
C4       0.83596    0.64329    0.33367   1.00
C4       0.86389    0.69991    0.34734   1.00
C3       0.84269    0.58472    0.33636   1.00
C3       0.90651    0.70640    0.36400   1.00
C3       0.80006    0.64523    0.31612   1.00
C3       0.84861    0.75330    0.34439   1.00
C2       0.78090    0.53241    0.30482   1.00
C2       0.91965    0.81676    0.37402   1.00
C3       0.81628    0.53096    0.32228   1.00
C3       0.93312    0.76288    0.37709   1.00
C3       0.77269    0.58991    0.30230   1.00
C3       0.87830    0.81116    0.35723   1.00
H1       0.86678    0.57929    0.34866   1.00
H1       0.91982    0.67049    0.36703   1.00
C5       0.79148    0.70229    0.31254   1.00
C5       0.80434    0.74906    0.32855   1.00
H1       0.82315    0.49013    0.32495   1.00
H1       0.96316    0.76455    0.38899   1.00
H1       0.74544    0.59117    0.29007   1.00
H1       0.87040    0.85092    0.35414   1.00
O3       0.76710    0.70925    0.29407   1.00
O3       0.77824    0.79268    0.32785   1.00
Si1      0.82049    0.75395    0.27610   1.00
Si1      0.70958    0.77347    0.34083   1.00
C6       0.75966    0.73252    0.25660   1.00
C6       0.85761    0.84062    0.28287   1.00
C6       0.87908    0.72658    0.27020   1.00
C6       0.67349    0.69895    0.35591   1.00
C6       0.73555    0.84508    0.35645   1.00
C6       0.64860    0.77033    0.32360   1.00
C6       0.70567    0.65482    0.25450   1.00
H2       0.73101    0.75666    0.26181   1.00
C6       0.78219    0.75865    0.23433   1.00
H2       0.81875    0.84008    0.29279   1.00
C6       0.92491    0.87358    0.29561   1.00
C6       0.86988    0.89389    0.26590   1.00
H2       0.84587    0.67140    0.26890   1.00
C6       0.91794    0.75078    0.24950   1.00
C6       0.93620    0.73846    0.28592   1.00
C6       0.65256    0.62950    0.34527   1.00
C6       0.70882    0.69873    0.37632   1.00
H2       0.62561    0.69501    0.36082   1.00
H2       0.77040    0.84185    0.36722   1.00
C6       0.77794    0.91624    0.34592   1.00
C6       0.67941    0.84852    0.36935   1.00
H2       0.66294    0.82370    0.32153   1.00
C6       0.64983    0.74384    0.30187   1.00
C6       0.57201    0.73255    0.33034   1.00
H2       0.67865    0.63371    0.26875   1.00
H2       0.72970    0.62534    0.24995   1.00
H2       0.66696    0.64651    0.24318   1.00
H2       0.74394    0.76755    0.22704   1.00
H2       0.83063    0.80608    0.23361   1.00
H2       0.78685    0.72148    0.22492   1.00
H2       0.93440    0.92164    0.30239   1.00
H2       0.92244    0.84110    0.30813   1.00
H2       0.96886    0.88469    0.28617   1.00
H2       0.82279    0.88078    0.25784   1.00
H2       0.88814    0.94472    0.27229   1.00
H2       0.90797    0.89774    0.25500   1.00
H2       0.94357    0.80621    0.24805   1.00
H2       0.95645    0.73541    0.24778   1.00
H2       0.88354    0.72775    0.23674   1.00
H2       0.98180    0.78839    0.28410   1.00
H2       0.92017    0.73472    0.30157   1.00
H2       0.95173    0.70023    0.28378   1.00
H2       0.69580    0.62133    0.34359   1.00
H2       0.61421    0.58702    0.35427   1.00
H2       0.63052    0.62590    0.33034   1.00
H2       0.67570    0.65310    0.38519   1.00
H2       0.75635    0.69878    0.37389   1.00
H2       0.71940    0.74216    0.38592   1.00
H2       0.80137    0.95670    0.35729   1.00
H2       0.81945    0.91870    0.33682   1.00
H2       0.74642    0.92797    0.33608   1.00
H2       0.64837    0.80142    0.37778   1.00
H2       0.70284    0.88966    0.38053   1.00
H2       0.64583    0.85849    0.35985   1.00
H2       0.63871    0.69110    0.30197   1.00
H2       0.61328    0.74728    0.29184   1.00
H2       0.69993    0.77488    0.29518   1.00
H2       0.54111    0.74306    0.31979   1.00
H2       0.55081    0.67734    0.33077   1.00
H2       0.56554    0.74917    0.34527   1.00
C4       0.80711    0.16377    0.33366   1.00
C4       0.83586    0.13588    0.34732   1.00
C3       0.74050    0.15421    0.33582   1.00
C3       0.79878    0.09062    0.36338   1.00
C3       0.84632    0.20264    0.31666   1.00
C3       0.90559    0.15397    0.34498   1.00
C2       0.75141    0.21902    0.30483   1.00
C2       0.89723    0.08043    0.37401   1.00
C3       0.71323    0.18072    0.32175   1.00
C3       0.82876    0.06414    0.37649   1.00
C3       0.81836    0.23003    0.30285   1.00
C3       0.93398    0.12444    0.35780   1.00
H1       0.70992    0.12789    0.34772   1.00
H1       0.74879    0.07522    0.36597   1.00
C5       0.91331    0.21414    0.31362   1.00
C5       0.94648    0.20091    0.32976   1.00
H1       0.66456    0.17173    0.32402   1.00
H1       0.79965    0.03209    0.38795   1.00
H1       0.84777    0.25939    0.29104   1.00
H1       0.98261    0.13449    0.35510   1.00
O3       0.94646    0.24158    0.29557   1.00
O3       1.01655    0.22935    0.32976   1.00
Si1      0.94199    0.19126    0.27716   1.00
Si1      1.06256    0.29689    0.34359   1.00
C6       0.98199    0.25483    0.25842   1.00
C6       0.99321    0.15609    0.28402   1.00
C6       0.85749    0.13120    0.27022   1.00
C6       1.02008    0.32875    0.35865   1.00
C6       1.10828    0.27136    0.35934   1.00
C6       1.12108    0.36107    0.32725   1.00
C6       0.95584    0.30697    0.25653   1.00
H2       1.03399    0.28435    0.26421   1.00
C6       0.98927    0.23574    0.23602   1.00
H2       1.02947    0.19441    0.29449   1.00
C6       0.95946    0.08725    0.29601   1.00
C6       1.03756    0.14788    0.26727   1.00
H2       0.83388    0.16297    0.26901   1.00
C6       0.84666    0.09520    0.24914   1.00
C6       0.81184    0.07150    0.28517   1.00
C6       0.97103    0.34861    0.34782   1.00
C6       0.98284    0.29017    0.37852   1.00
H2       1.06229    0.37676    0.36422   1.00
H2       1.06959    0.23436    0.36956   1.00
C6       1.14062    0.23237    0.34872   1.00
C6       1.16514    0.32708    0.37307   1.00
H2       1.16170    0.34888    0.32535   1.00
C6       1.09549    0.36149    0.30532   1.00
C6       1.15666    0.43673    0.33481   1.00
H2       0.95903    0.33185    0.27101   1.00
H2       0.90284    0.28186    0.25143   1.00
H2       0.98660    0.34750    0.24573   1.00
H2       1.03663    0.27599    0.22936   1.00
H2       0.99032    0.18839    0.23495   1.00
H2       0.94795    0.23067    0.22629   1.00
H2       0.99835    0.07867    0.30299   1.00
H2       0.92725    0.08687    0.30831   1.00
H2       0.92893    0.04410    0.28601   1.00
H2       1.07122    0.19635    0.25981   1.00
H2       1.07074    0.13052    0.27375   1.00
H2       1.00554    0.11060    0.25585   1.00
H2       0.87825    0.07150    0.24772   1.00
H2       0.79352    0.05556    0.24676   1.00
H2       0.85836    0.13093    0.23673   1.00
H2       0.81835    0.02728    0.28306   1.00
H2       0.82182    0.08571    0.30102   1.00
H2       0.75794    0.05441    0.28254   1.00
H2       0.92062    0.30444    0.34545   1.00
H2       0.96416    0.38484    0.35705   1.00
H2       0.99073    0.37281    0.33319   1.00
H2       0.96764    0.32096    0.38753   1.00
H2       0.93669    0.24206    0.37540   1.00
H2       1.01561    0.27994    0.38827   1.00
H2       1.15758    0.20870    0.36003   1.00
H2       1.10362    0.19132    0.33903   1.00
H2       1.18459    0.26620    0.33943   1.00
H2       1.14647    0.35574    0.38160   1.00
H2       1.18281    0.30346    0.38419   1.00
H2       1.20928    0.36289    0.36414   1.00
H2       1.05260    0.37068    0.30520   1.00
H2       1.13596    0.40013    0.29585   1.00
H2       1.07894    0.31254    0.29814   1.00
H2       1.19887    0.46997    0.32480   1.00
H2       1.12106    0.45605    0.33516   1.00
H2       1.17813    0.44212    0.34995   1.00
C4       0.80870    0.64950    0.83148   1.00
C4       0.83706    0.70466    0.84566   1.00
C3       0.75304    0.63518    0.81851   1.00
C3       0.80877    0.74709    0.84960   1.00
C3       0.83646    0.60521    0.83028   1.00
C3       0.89718    0.71883    0.85658   1.00
C2       0.75206    0.53493    0.80393   1.00
C2       0.89658    0.81424    0.87491   1.00
C3       0.72522    0.57927    0.80519   1.00
C3       0.83804    0.80078    0.86368   1.00
C3       0.80849    0.54983    0.81648   1.00
C3       0.92418    0.77131    0.87133   1.00
H1       0.73123    0.66509    0.81831   1.00
H1       0.76583    0.73999    0.84245   1.00
C5       0.89215    0.61669    0.84282   1.00
C5       0.92973    0.68028    0.85288   1.00
H1       0.68465    0.57115    0.79628   1.00
H1       0.81571    0.83016    0.86577   1.00
H1       0.83014    0.51963    0.81538   1.00
H1       0.96463    0.77799    0.87994   1.00
O3       0.91132    0.56785    0.84410   1.00
O3       0.99454    0.70136    0.86016   1.00
Si1      0.88045    0.51079    0.86212   1.00
Si1      1.06013    0.75619    0.84694   1.00
C6       0.91334    0.45948    0.85320   1.00
C6       0.92010    0.55205    0.88496   1.00
C6       0.79045    0.46488    0.86279   1.00
C6       1.04496    0.78832    0.82430   1.00
C6       1.10484    0.82348    0.86409   1.00
C6       1.11047    0.71862    0.84190   1.00
C6       0.90260    0.44126    0.83005   1.00
H2       0.96821    0.49314    0.85504   1.00
C6       0.89639    0.39138    0.86426   1.00
H2       0.96788    0.59491    0.87953   1.00
C6       0.88557    0.58412    0.89802   1.00
C6       0.94108    0.51348    0.90048   1.00
H2       0.77749    0.45104    0.84686   1.00
C6       0.75555    0.39621    0.87494   1.00
C6       0.75069    0.50192    0.86960   1.00
C6       1.00019    0.73610    0.80756   1.00
C6       1.02126    0.84245    0.82548   1.00
H2       1.09596    0.81678    0.81774   1.00
H2       1.07238    0.84609    0.86571   1.00
C6       1.11356    0.80274    0.88607   1.00
C6       1.17651    0.88239    0.85737   1.00
H2       1.13963    0.72675    0.85583   1.00
C6       1.07135    0.63988    0.83865   1.00
C6       1.16422    0.74939    0.82438   1.00
H2       0.92309    0.48702    0.82064   1.00
H2       0.84852    0.40919    0.82642   1.00
H2       0.92886    0.41396    0.82546   1.00
H2       0.93974    0.38284    0.86315   1.00
H2       0.88507    0.39153    0.88027   1.00
H2       0.85297    0.34692    0.85743   1.00
H2       0.92146    0.61988    0.90915   1.00
H2       0.86894    0.61302    0.88882   1.00
H2       0.84177    0.54499    0.90635   1.00
H2       0.97439    0.49731    0.89351   1.00
H2       0.96974    0.54640    0.91321   1.00
H2       0.89627    0.46890    0.90671   1.00
H2       0.77488    0.40368    0.89045   1.00
H2       0.70013    0.37381    0.87571   1.00
H2       0.76356    0.35780    0.86762   1.00
H2       0.74378    0.50032    0.88601   1.00
H2       0.77538    0.55503    0.86514   1.00
H2       0.69983    0.47693    0.86278   1.00
H2       0.94595    0.71495    0.81047   1.00
H2       1.01074    0.76096    0.79273   1.00
H2       1.01025    0.69401    0.80624   1.00
H2       1.02344    0.86422    0.81050   1.00
H2       0.96899    0.82055    0.83080   1.00
H2       1.05396    0.88518    0.83532   1.00
H2       1.13125    0.84622    0.89638   1.00
H2       1.06516    0.76235    0.89213   1.00
H2       1.15041    0.78510    0.88663   1.00
H2       1.17491    0.90162    0.84233   1.00
H2       1.19465    0.92548    0.86785   1.00
H2       1.21427    0.86581    0.85726   1.00
H2       1.03794    0.62475    0.82544   1.00
H2       1.10630    0.62017    0.83680   1.00
H2       1.04005    0.61476    0.85183   1.00
H2       1.19887    0.72889    0.82480   1.00
H2       1.13965    0.73746    0.80950   1.00
H2       1.19573    0.80462    0.82565   1.00
C4       0.35282    0.16745    0.83224   1.00
C4       0.29638    0.13936    0.84597   1.00
C3       0.35766    0.20776    0.81514   1.00
C3       0.23646    0.14352    0.84296   1.00
C3       0.40730    0.15395    0.83547   1.00
C3       0.29943    0.10522    0.86380   1.00
C2       0.46706    0.21956    0.80462   1.00
C2       0.18377    0.07989    0.87422   1.00
C3       0.41299    0.23279    0.80164   1.00
C3       0.18196    0.11517    0.85678   1.00
C3       0.46329    0.18074    0.82188   1.00
C3       0.24276    0.07449    0.87709   1.00
H1       0.32124    0.22030    0.81204   1.00
H1       0.23047    0.16688    0.83057   1.00
C5       0.40565    0.11402    0.85228   1.00
C5       0.35866    0.10135    0.86821   1.00
H1       0.41347    0.26124    0.78946   1.00
H1       0.14016    0.12026    0.85390   1.00
H1       0.50289    0.17222    0.82470   1.00
H1       0.24399    0.04651    0.88908   1.00
O3       0.45206    0.09167    0.85347   1.00
O3       0.36822    0.08089    0.88709   1.00
Si1      0.43212    0.01660    0.84461   1.00
Si1      0.40130    0.13740    0.90518   1.00
C6       0.51353    0.02493    0.84720   1.00
C6       0.37310    -0.04471   0.86157   1.00
C6       0.40593    0.00491    0.81899   1.00
C6       0.42065    0.22180    0.89995   1.00
C6       0.33945    0.10290    0.92439   1.00
C6       0.47467    0.13690    0.91382   1.00
C6       0.57495    0.09317    0.83910   1.00
H2       0.51992    0.02686    0.86365   1.00
C6       0.52755    -0.03275   0.83971   1.00
H2       0.38510    -0.01589   0.87570   1.00
C6       0.29533    -0.07278   0.85781   1.00
C6       0.37928    -0.10903   0.86648   1.00
H2       0.44548    0.05180    0.81194   1.00
C6       0.40598    -0.05518   0.80722   1.00
C6       0.33573    -0.00115   0.81323   1.00
C6       0.47013    0.26021    0.88196   1.00
C6       0.36146    0.23848    0.89849   1.00
H2       0.44826    0.24896    0.91358   1.00
H2       0.29721    0.10786    0.91842   1.00
C6       0.30883    0.02502    0.92879   1.00
C6       0.35810    0.13970    0.94544   1.00
H2       0.45479    0.09325    0.92407   1.00
C6       0.51596    0.12272    0.89753   1.00
C6       0.52828    0.19964    0.92638   1.00
H2       0.57619    0.13759    0.84603   1.00
H2       0.57211    0.09743    0.82266   1.00
H2       0.62367    0.09650    0.84267   1.00
H2       0.56515    -0.03521   0.84955   1.00
H2       0.48212    -0.08294   0.83973   1.00
H2       0.54863    -0.02333   0.82438   1.00
H2       0.26568    -0.09839   0.87136   1.00
H2       0.28435    -0.03227   0.85432   1.00
H2       0.27630    -0.10980   0.84545   1.00
H2       0.42988    -0.09476   0.87223   1.00
H2       0.34322    -0.14023   0.87831   1.00
H2       0.36866    -0.14120   0.85308   1.00
H2       0.37637    -0.10341   0.81527   1.00
H2       0.38457    -0.06148   0.79196   1.00
H2       0.45751    -0.04572   0.80495   1.00
H2       0.29357    -0.05356   0.81428   1.00
H2       0.32249    0.02973    0.82264   1.00
H2       0.33721    0.01549    0.79757   1.00
H2       0.44351    0.24744    0.86746   1.00
H2       0.49342    0.31537    0.88388   1.00
H2       0.51159    0.24911    0.88096   1.00
H2       0.38192    0.29364    0.89808   1.00
H2       0.33098    0.21760    0.88484   1.00
H2       0.32750    0.21961    0.91157   1.00
H2       0.26334    0.00600    0.93831   1.00
H2       0.29310    -0.00488   0.91480   1.00
H2       0.34507    0.01454    0.93662   1.00
H2       0.37813    0.19444    0.94389   1.00
H2       0.31277    0.11994    0.95506   1.00
H2       0.39570    0.13163    0.95345   1.00
H2       0.53661    0.16194    0.88581   1.00
H2       0.55818    0.11930    0.90431   1.00
H2       0.48313    0.07420    0.89018   1.00
H2       0.56554    0.18873    0.93342   1.00
H2       0.55629    0.24466    0.91679   1.00
H2       0.50438    0.21249    0.93863   1.00
C4       0.83221    0.18556    0.83243   1.00
C4       0.86024    0.15704    0.84613   1.00
C3       0.78442    0.14744    0.81701   1.00
C3       0.84810    0.08930    0.84460   1.00
C3       0.85359    0.25635    0.83390   1.00
C3       0.90272    0.19795    0.86236   1.00
C2       0.78051    0.24773    0.80469   1.00
C2       0.92004    0.10363    0.87415   1.00
C3       0.75955    0.17770    0.80344   1.00
C3       0.87664    0.06309    0.85833   1.00
C3       0.82692    0.28564    0.82031   1.00
C3       0.93333    0.17151    0.87551   1.00
H1       0.76611    0.09651    0.81523   1.00
H1       0.81852    0.05715    0.83339   1.00
C5       0.90123    0.29736    0.84899   1.00
C5       0.91499    0.26516    0.86530   1.00
H1       0.72545    0.14768    0.79250   1.00
H1       0.86561    0.01355    0.85659   1.00
H1       0.84127    0.33606    0.82190   1.00
H1       0.96706    0.20283    0.88624   1.00
O3       0.93021    0.36725    0.84824   1.00
O3       0.94428    0.30051    0.88299   1.00
Si1      1.00324    0.41320    0.83679   1.00
Si1      0.89546    0.28870    0.90256   1.00
C6       1.00458    0.49174    0.83795   1.00
C6       1.06688    0.41396    0.85238   1.00
C6       1.00326    0.38805    0.81144   1.00
C6       0.80750    0.22875    0.90042   1.00
C6       0.93157    0.26230    0.92155   1.00
C6       0.90731    0.36902    0.90953   1.00
C6       0.93717    0.48999    0.83139   1.00
H2       1.00924    0.50213    0.85422   1.00
C6       1.06373    0.55760    0.82784   1.00
H2       1.04322    0.40446    0.86734   1.00
C6       1.08617    0.35722    0.84917   1.00
C6       1.13659    0.48191    0.85448   1.00
H2       0.95612    0.38359    0.80552   1.00
C6       1.06181    0.44007    0.79728   1.00
C6       0.99967    0.31812    0.80699   1.00
C6       0.76637    0.23893    0.88307   1.00
C6       0.78292    0.15064    0.90093   1.00
H2       0.78713    0.23699    0.91447   1.00
H2       0.91950    0.21137    0.91673   1.00
C6       1.01116    0.30409    0.92338   1.00
C6       0.90281    0.25466    0.94355   1.00
H2       0.95444    0.39218    0.91835   1.00
C6       0.92086    0.42010    0.89189   1.00
C6       0.85228    0.37111    0.92342   1.00
H2       0.89340    0.45229    0.84007   1.00
H2       0.92645    0.47757    0.81530   1.00
H2       0.94044    0.53921    0.83401   1.00
H2       1.07407    0.60262    0.83669   1.00
H2       1.11113    0.55663    0.82677   1.00
H2       1.05069    0.56585    0.81255   1.00
H2       1.11453    0.35445    0.86222   1.00
H2       1.04133    0.30686    0.84762   1.00
H2       1.11827    0.36757    0.83579   1.00
H2       1.12941    0.52364    0.85968   1.00
H2       1.16946    0.47705    0.86572   1.00
H2       1.16418    0.49623    0.84009   1.00
H2       1.11185    0.45656    0.80394   1.00
H2       1.06048    0.41839    0.78234   1.00
H2       1.05687    0.48459    0.79431   1.00
H2       1.05011    0.32298    0.80679   1.00
H2       0.96930    0.27864    0.81789   1.00
H2       0.97676    0.29896    0.79210   1.00
H2       0.77148    0.21804    0.86873   1.00
H2       0.71200    0.21269    0.88675   1.00
H2       0.78224    0.29242    0.88073   1.00
H2       0.72740    0.12066    0.90236   1.00
H2       0.79639    0.13352    0.88719   1.00
H2       0.80358    0.13692    0.91388   1.00
H2       1.02940    0.27722    0.93303   1.00
H2       1.03559    0.31074    0.90860   1.00
H2       1.02899    0.35447    0.92993   1.00
H2       0.84727    0.22424    0.94384   1.00
H2       0.92189    0.22869    0.95328   1.00
H2       0.91835    0.30429    0.95037   1.00
H2       0.87793    0.40138    0.88142   1.00
H2       0.93161    0.46984    0.89756   1.00
H2       0.96525    0.42834    0.88330   1.00
H2       0.87040    0.42269    0.92916   1.00
H2       0.80488    0.35541    0.91516   1.00
H2       0.84060    0.33815    0.93663   1.00
C4       -0.01918   0.47244    0.33445   1.00
C4       0.03607    0.50164    0.32030   1.00
C3       -0.06166   0.40114    0.33737   1.00
C3       0.05042    0.46257    0.30639   1.00
C3       -0.03389   0.51649    0.34619   1.00
C3       0.07989    0.57387    0.31992   1.00
C2       -0.13199   0.41733    0.36263   1.00
C2       0.14784    0.56463    0.29185   1.00
C3       -0.11675   0.37429    0.35098   1.00
C3       0.10514    0.49311    0.29268   1.00
C3       -0.08891   0.48842    0.36012   1.00
C3       0.13295    0.60382    0.30540   1.00
H1       -0.05368   0.36663    0.32974   1.00
H1       0.02131    0.41083    0.30572   1.00
C5       0.00664    0.58828    0.34401   1.00
C5       0.07026    0.61591    0.33388   1.00
H1       -0.14602   0.32228    0.35235   1.00
H1       0.11344    0.46227    0.28310   1.00
H1       -0.09768   0.52066    0.36885   1.00
H1       0.16112    0.65580    0.30446   1.00
O3       -0.01434   0.63001    0.35274   1.00
O3       0.11940    0.68358    0.33651   1.00
Si1      -0.05912   0.65466    0.33952   1.00
Si1      0.18226    0.70246    0.35214   1.00
C6       -0.07883   0.69342    0.35961   1.00
C6       -0.00358   0.71581    0.32189   1.00
C6       -0.13367   0.58628    0.32896   1.00
C6       0.18601    0.63488    0.36434   1.00
C6       0.25469    0.74780    0.33680   1.00
C6       0.18171    0.75934    0.37026   1.00
C6       -0.10518   0.65059    0.37962   1.00
H2       -0.02886   0.73660    0.36341   1.00
C6       -0.12642   0.72448    0.35618   1.00
H2       0.04575    0.73555    0.32936   1.00
C6       0.00467    0.69067    0.30053   1.00
C6       -0.01136   0.77955    0.31758   1.00
H2       -0.15544   0.55186    0.34191   1.00
C6       -0.19027   0.60172    0.32150   1.00
C6       -0.12740   0.54312    0.31130   1.00
C6       0.12333    0.58384    0.37734   1.00
C6       0.20905    0.59067    0.35204   1.00
H2       0.22733    0.66195    0.37521   1.00
H2       0.25336    0.70900    0.32670   1.00
C6       0.25469    0.80306    0.32252   1.00
C6       0.32584    0.78216    0.34750   1.00
H2       0.20723    0.80873    0.36263   1.00
C6       0.11037    0.74832    0.37636   1.00
C6       0.22150    0.76925    0.39058   1.00
H2       -0.06938   0.63530    0.38521   1.00
H2       -0.15444   0.60445    0.37727   1.00
H2       -0.11117   0.68013    0.39174   1.00
H2       -0.11041   0.76897    0.36595   1.00
H2       -0.12563   0.74083    0.34064   1.00
H2       -0.17949   0.68857    0.36005   1.00
H2       0.05011    0.73023    0.29284   1.00
H2       0.01101    0.64620    0.30155   1.00
H2       -0.03911   0.67827    0.29084   1.00
H2       -0.00764   0.80725    0.33150   1.00
H2       0.02924    0.81592    0.30762   1.00
H2       -0.05997   0.76484    0.31019   1.00
H2       -0.16950   0.64441    0.31086   1.00
H2       -0.23228   0.55775    0.31393   1.00
H2       -0.21367   0.61322    0.33413   1.00
H2       -0.12533   0.56527    0.29643   1.00
H2       -0.08281   0.53741    0.31249   1.00
H2       -0.17180   0.49167    0.31127   1.00
H2       0.08357    0.54419    0.36801   1.00
H2       0.13858    0.55820    0.38848   1.00
H2       0.10102    0.60925    0.38575   1.00
H2       0.21803    0.55780    0.36222   1.00
H2       0.17078    0.55745    0.34112   1.00
H2       0.25681    0.62191    0.34395   1.00
H2       0.29552    0.81996    0.31128   1.00
H2       0.20687    0.78274    0.31410   1.00
H2       0.26228    0.84785    0.33092   1.00
H2       0.33127    0.74653    0.35739   1.00
H2       0.36672    0.79997    0.33624   1.00
H2       0.33431    0.82626    0.35648   1.00
H2       0.07852    0.69892    0.38355   1.00
H2       0.11472    0.78797    0.38671   1.00
H2       0.08380    0.75072    0.36296   1.00
H2       0.22610    0.81286    0.39906   1.00
H2       0.19549    0.72436    0.40032   1.00
H2       0.27320    0.77928    0.38787   1.00
C4       0.49177    1.01970    0.33426   1.00
C4       0.46584    0.96439    0.32014   1.00
C3       0.46900    1.06776    0.33522   1.00
C3       0.41918    0.95526    0.30440   1.00
C3       0.54417    1.02856    0.34806   1.00
C3       0.48721    0.91499    0.32171   1.00
C2       0.54918    1.13212    0.36258   1.00
C2       0.41695    0.85203    0.29190   1.00
C3       0.49714    1.12266    0.34891   1.00
C3       0.39490    0.90029    0.29078   1.00
C3       0.57101    1.08353    0.36201   1.00
C3       0.46439    0.86163    0.30730   1.00
H1       0.43112    1.06416    0.32606   1.00
H1       0.40180    0.98850    0.30229   1.00
C5       0.56922    0.98229    0.34790   1.00
C5       0.53166    0.91934    0.33751   1.00
H1       0.47898    1.15609    0.34881   1.00
H1       0.36077    0.89594    0.27982   1.00
H1       0.60723    1.08815    0.37219   1.00
H1       0.48353    0.82923    0.30784   1.00
O3       0.62706    0.99725    0.35875   1.00
O3       0.54219    0.86552    0.34175   1.00
Si1      0.70148    1.03625    0.34766   1.00
Si1      0.48850    0.80460    0.35660   1.00
C6       0.75134    1.05050    0.36964   1.00
C6       0.70613    0.97694    0.33138   1.00
C6       0.71963    1.11388    0.33610   1.00
C6       0.41753    0.80900    0.36587   1.00
C6       0.45996    0.73130    0.34157   1.00
C6       0.53580    0.79878    0.37693   1.00
C6       0.73229    1.08036    0.38837   1.00
H2       0.73781    0.99873    0.37403   1.00
C6       0.83132    1.09151    0.36860   1.00
H2       0.67022    0.92851    0.33847   1.00
C6       0.68139    0.97185    0.30896   1.00
C6       0.77507    0.97686    0.32988   1.00
H2       0.70602    1.13840    0.34804   1.00
C6       0.79590    1.16509    0.33061   1.00
C6       0.67893    1.11276    0.31665   1.00
C6       0.43133    0.87378    0.37813   1.00
C6       0.35643    0.79234    0.35132   1.00
H2       0.39567    0.76727    0.37682   1.00
H2       0.42870    0.73689    0.32998   1.00
C6       0.51625    0.72478    0.32964   1.00
C6       0.41366    0.66077    0.35196   1.00
H2       0.55760    0.76909    0.37079   1.00
C6       0.59828    0.86700    0.38418   1.00
C6       0.49637    0.76058    0.39659   1.00
H2       0.67862    1.04862    0.39247   1.00
H2       0.74183    1.13183    0.38527   1.00
H2       0.76192    1.08272    0.40175   1.00
H2       0.85258    1.07149    0.37975   1.00
H2       0.85101    1.08871    0.35382   1.00
H2       0.85224    1.14544    0.37219   1.00
H2       0.67316    0.92461    0.30190   1.00
H2       0.63301    0.97103    0.30801   1.00
H2       0.71906    1.01421    0.29984   1.00
H2       0.79219    0.97034    0.34475   1.00
H2       0.76972    0.93449    0.32055   1.00
H2       0.81488    1.02404    0.32306   1.00
H2       0.81747    1.14058    0.32132   1.00
H2       0.80163    1.20944    0.32227   1.00
H2       0.82683    1.18584    0.34416   1.00
H2       0.70244    1.10810    0.30274   1.00
H2       0.62645    1.07163    0.31658   1.00
H2       0.67763    1.16031    0.31554   1.00
H2       0.43932    0.91551    0.36816   1.00
H2       0.38769    0.86256    0.38779   1.00
H2       0.47550    0.89187    0.38803   1.00
H2       0.31296    0.78781    0.35988   1.00
H2       0.36938    0.83191    0.34000   1.00
H2       0.33817    0.74388    0.34347   1.00
H2       0.49298    0.68443    0.31824   1.00
H2       0.55037    0.77186    0.32155   1.00
H2       0.54709    0.71261    0.33964   1.00
H2       0.37144    0.65989    0.36020   1.00
H2       0.39121    0.62027    0.34057   1.00
H2       0.44275    0.64786    0.36248   1.00
H2       0.58328    0.90263    0.39002   1.00
H2       0.62708    0.85848    0.39597   1.00
H2       0.63296    0.89148    0.37158   1.00
H2       0.52922    0.75134    0.40670   1.00
H2       0.47855    0.79023    0.40503   1.00
H2       0.45241    0.71092    0.39313   1.00
C4       0.52792    0.50823    0.33427   1.00
C4       0.49855    0.53417    0.32015   1.00
C3       0.59880    0.53125    0.33530   1.00
C3       0.53616    0.58109    0.30447   1.00
C3       0.48434    0.45559    0.34800   1.00
C3       0.42770    0.51253    0.32165   1.00
C2       0.58294    0.45081    0.36258   1.00
C2       0.43510    0.58306    0.29190   1.00
C3       0.62555    0.50310    0.34898   1.00
C3       0.50548    0.60537    0.29085   1.00
C3       0.51248    0.42875    0.36194   1.00
C3       0.39719    0.53536    0.30724   1.00
H1       0.63310    0.56930    0.32619   1.00
H1       0.58684    0.59867    0.30241   1.00
C5       0.41299    0.43030    0.34776   1.00
C5       0.38751    0.46780    0.33738   1.00
H1       0.67718    0.52144    0.34893   1.00
H1       0.53532    0.63969    0.27993   1.00
H1       0.48083    0.39234    0.37208   1.00
H1       0.34561    0.51603    0.30772   1.00
O3       0.37012    0.37226    0.35854   1.00
O3       0.32302    0.45698    0.34157   1.00
Si1      0.33508    0.29799    0.34736   1.00
Si1      0.31536    0.51033    0.35646   1.00
C6       0.29933    0.24780    0.36929   1.00
C6       0.27121    0.29329    0.33104   1.00
C6       0.39491    0.28027    0.33583   1.00
C6       0.39048    0.58135    0.36583   1.00
C6       0.27058    0.53882    0.34141   1.00
C6       0.26208    0.46264    0.37672   1.00
C6       0.34803    0.26678    0.38806   1.00
H2       0.26089    0.26109    0.37365   1.00
C6       0.26062    0.16784    0.36816   1.00
H2       0.25842    0.32899    0.33815   1.00
C6       0.29108    0.31835    0.30865   1.00
C6       0.20235    0.22423    0.32944   1.00
H2       0.43291    0.29386    0.34782   1.00
C6       0.37017    0.20413    0.33027   1.00
C6       0.43464    0.32131    0.31644   1.00
C6       0.44147    0.56763    0.37812   1.00
C6       0.43494    0.64269    0.35136   1.00
H2       0.37034    0.60293    0.37678   1.00
H2       0.30753    0.57032    0.32988   1.00
C6       0.20803    0.48253    0.32940   1.00
C6       0.24597    0.58478    0.35182   1.00
H2       0.21065    0.44076    0.37051   1.00
C6       0.26800    0.40023    0.38391   1.00
C6       0.26290    0.50175    0.39640   1.00
H2       0.36973    0.32037    0.39222   1.00
H2       0.39012    0.25747    0.38499   1.00
H2       0.32066    0.23693    0.40140   1.00
H2       0.21920    0.14631    0.37926   1.00
H2       0.23835    0.14829    0.35334   1.00
H2       0.29374    0.14706    0.37175   1.00
H2       0.25204    0.32649    0.30156   1.00
H2       0.33854    0.36684    0.30777   1.00
H2       0.29604    0.28089    0.29950   1.00
H2       0.17855    0.20686    0.34428   1.00
H2       0.16535    0.22953    0.32008   1.00
H2       0.20998    0.18461    0.32259   1.00
H2       0.32421    0.18253    0.32093   1.00
H2       0.40900    0.19868    0.32195   1.00
H2       0.35994    0.17305    0.34379   1.00
H2       0.40668    0.29790    0.30250   1.00
H2       0.44579    0.37372    0.31642   1.00
H2       0.48359    0.32282    0.31537   1.00
H2       0.47544    0.55993    0.36817   1.00
H2       0.47366    0.61119    0.38784   1.00
H2       0.41540    0.52332    0.38797   1.00
H2       0.47368    0.68612    0.35998   1.00
H2       0.46181    0.63002    0.34005   1.00
H2       0.40469    0.66088    0.34351   1.00
H2       0.19095    0.50582    0.31800   1.00
H2       0.22125    0.44865    0.32129   1.00
H2       0.16492    0.45145    0.33934   1.00
H2       0.28712    0.62698    0.36013   1.00
H2       0.22794    0.60726    0.34043   1.00
H2       0.20388    0.55544    0.36229   1.00
H2       0.31860    0.41533    0.38981   1.00
H2       0.23058    0.37118    0.39566   1.00
H2       0.25809    0.36574    0.37129   1.00
H2       0.22074    0.46866    0.40645   1.00
H2       0.31029    0.51961    0.40489   1.00
H2       0.25705    0.54564    0.39297   1.00
C4       0.18750    0.35006    0.16871   1.00
C4       0.15823    0.29479    0.15457   1.00
C3       0.15282    0.35386    0.18617   1.00
C3       0.08940    0.24105    0.15546   1.00
C3       0.25480    0.40542    0.16518   1.00
C3       0.19959    0.29243    0.13861   1.00
C2       0.24894    0.46518    0.19602   1.00
C2       0.10242    0.18565    0.12514   1.00
C3       0.18250    0.40999    0.19939   1.00
C3       0.06240    0.18763    0.14127   1.00
C3       0.28432    0.46097    0.17891   1.00
C3       0.17061    0.23973    0.12396   1.00
H1       0.10508    0.31585    0.18982   1.00
H1       0.05674    0.23935    0.16637   1.00
C5       0.29228    0.40479    0.14802   1.00
C5       0.26944    0.34291    0.13723   1.00
H1       0.15479    0.41015    0.21169   1.00
H1       0.01244    0.14983    0.14276   1.00
H1       0.33334    0.49941    0.17650   1.00
H1       0.19967    0.24114    0.11190   1.00
O3       0.35209    0.46283    0.14282   1.00
O3       0.31331    0.33448    0.12455   1.00
Si1      0.35076    0.51613    0.12639   1.00
Si1      0.34860    0.29140    0.13275   1.00
C6       0.43641    0.58125    0.12943   1.00
C6       0.33703    0.47789    0.10226   1.00
C6       0.29386    0.54494    0.13303   1.00
C6       0.32657    0.25494    0.15725   1.00
C6       0.32366    0.22642    0.11462   1.00
C6       0.43756    0.34519    0.13088   1.00
C6       0.46157    0.60114    0.15186   1.00
H2       0.46430    0.55722    0.12347   1.00
C6       0.46534    0.65074    0.11777   1.00
H2       0.35646    0.44286    0.10436   1.00
C6       0.26194    0.43305    0.09465   1.00
C6       0.37708    0.52356    0.08371   1.00
H2       0.30640    0.55872    0.14897   1.00
C6       0.30338    0.61065    0.12213   1.00
C6       0.21484    0.49407    0.13211   1.00
C6       0.33847    0.30334    0.17562   1.00
C6       0.25532    0.18975    0.16078   1.00
H2       0.36243    0.23660    0.15948   1.00
H2       0.26914    0.19368    0.11732   1.00
C6       0.33000    0.24891    0.09189   1.00
C6       0.35598    0.17961    0.11618   1.00
H2       0.44865    0.34175    0.11495   1.00
C6       0.46520    0.42259    0.13470   1.00
C6       0.48445    0.32614    0.14340   1.00
H2       0.45351    0.55683    0.16065   1.00
H2       0.43482    0.62380    0.15950   1.00
H2       0.51622    0.63787    0.15243   1.00
H2       0.51908    0.67058    0.11406   1.00
H2       0.43862    0.64616    0.10365   1.00
H2       0.46309    0.68988    0.12687   1.00
H2       0.25959    0.40120    0.08186   1.00
H2       0.22874    0.39836    0.10632   1.00
H2       0.24093    0.46463    0.08955   1.00
H2       0.43203    0.55001    0.08630   1.00
H2       0.36804    0.49293    0.07001   1.00
H2       0.36150    0.56112    0.08048   1.00
H2       0.30323    0.60541    0.10567   1.00
H2       0.26311    0.62191    0.12612   1.00
H2       0.35062    0.65549    0.12671   1.00
H2       0.19385    0.49242    0.11708   1.00
H2       0.20052    0.44216    0.13606   1.00
H2       0.18848    0.51006    0.14276   1.00
H2       0.29643    0.31327    0.17749   1.00
H2       0.34241    0.28016    0.18973   1.00
H2       0.38543    0.35206    0.17410   1.00
H2       0.25317    0.16799    0.17576   1.00
H2       0.21376    0.20072    0.16012   1.00
H2       0.24498    0.14963    0.14983   1.00
H2       0.30282    0.20432    0.08206   1.00
H2       0.30729    0.28102    0.08937   1.00
H2       0.38298    0.27701    0.08688   1.00
H2       0.35202    0.15973    0.13150   1.00
H2       0.32943    0.13554    0.10611   1.00
H2       0.40964    0.20683    0.11174   1.00
H2       0.45481    0.43263    0.15008   1.00
H2       0.52011    0.45277    0.13208   1.00
H2       0.44118    0.44127    0.12426   1.00
H2       0.53764    0.35687    0.13861   1.00
H2       0.48222    0.33495    0.15961   1.00
H2       0.47027    0.27292    0.14126   1.00
C4       0.64322    0.83517    0.16631   1.00
C4       0.69976    0.86320    0.15261   1.00
C3       0.58062    0.83305    0.16225   1.00
C3       0.70163    0.89742    0.13436   1.00
C3       0.64942    0.80855    0.18531   1.00
C3       0.75793    0.85685    0.15721   1.00
C2       0.53252    0.78071    0.19522   1.00
C2       0.81665    0.91984    0.12594   1.00
C3       0.52692    0.80695    0.17634   1.00
C3       0.75818    0.92441    0.12129   1.00
C3       0.59418    0.78126    0.19917   1.00
C3       0.81555    0.88695    0.14428   1.00
H1       0.57212    0.85021    0.14890   1.00
H1       0.66214    0.90412    0.13009   1.00
C5       0.71064    0.80909    0.19032   1.00
C5       0.75865    0.82108    0.17477   1.00
H1       0.48302    0.80720    0.17263   1.00
H1       0.75643    0.94812    0.10822   1.00
H1       0.59867    0.76063    0.21250   1.00
H1       0.85844    0.88576    0.14844   1.00
O3       0.72071    0.79409    0.20983   1.00
O3       0.80787    0.80268    0.17742   1.00
Si1      0.76113    0.85562    0.22619   1.00
Si1      0.79616    0.73203    0.16716   1.00
C6       0.74567    0.80368    0.24776   1.00
C6       0.84816    0.89841    0.21949   1.00
C6       0.72500    0.90852    0.22897   1.00
C6       0.72212    0.68380    0.15235   1.00
C6       0.86878    0.75942    0.15189   1.00
C6       0.80006    0.68144    0.18683   1.00
C6       0.67023    0.74471    0.25072   1.00
H2       0.77472    0.77833    0.24429   1.00
C6       0.77019    0.83588    0.26937   1.00
H2       0.85247    0.85881    0.21133   1.00
C6       0.87490    0.96022    0.20456   1.00
C6       0.90266    0.92261    0.23680   1.00
H2       0.67080    0.87131    0.23066   1.00
C6       0.74552    0.95500    0.24828   1.00
C6       0.73078    0.95718    0.21113   1.00
C6       0.65123    0.65955    0.16250   1.00
C6       0.71785    0.70908    0.13057   1.00
H2       0.72387    0.63723    0.14948   1.00
H2       0.86125    0.78737    0.13963   1.00
C6       0.93856    0.81141    0.16184   1.00
C6       0.87944    0.70323    0.14159   1.00
H2       0.85460    0.70218    0.18927   1.00
C6       0.77165    0.68711    0.20783   1.00
C6       0.76962    0.60339    0.18276   1.00
H2       0.65145    0.71190    0.23736   1.00
H2       0.63612    0.76488    0.25363   1.00
H2       0.66604    0.71194    0.26347   1.00
H2       0.78416    0.80425    0.27842   1.00
H2       0.81433    0.88693    0.26887   1.00
H2       0.73027    0.83892    0.27779   1.00
H2       0.92457    0.97260    0.19833   1.00
H2       0.84110    0.94932    0.19163   1.00
H2       0.88113    1.00571    0.21223   1.00
H2       0.89445    0.88031    0.24659   1.00
H2       0.95416    0.94360    0.23063   1.00
H2       0.90192    0.96229    0.24604   1.00
H2       0.80087    0.98622    0.24965   1.00
H2       0.72457    0.98932    0.24802   1.00
H2       0.72524    0.92489    0.26200   1.00
H2       0.77788    1.00631    0.21190   1.00
H2       0.72901    0.93621    0.19623   1.00
H2       0.68851    0.96750    0.21185   1.00
H2       0.63729    0.69913    0.16214   1.00
H2       0.61119    0.61546    0.15444   1.00
H2       0.64992    0.64410    0.17820   1.00
H2       0.67385    0.66949    0.12235   1.00
H2       0.71206    0.75394    0.13092   1.00
H2       0.76253    0.72086    0.12141   1.00
H2       0.97855    0.83406    0.15030   1.00
H2       0.93596    0.85342    0.16911   1.00
H2       0.95465    0.78728    0.17319   1.00
H2       0.83363    0.66554    0.13369   1.00
H2       0.92015    0.72605    0.13027   1.00
H2       0.89393    0.67686    0.15266   1.00
H2       0.71735    0.67014    0.20722   1.00
H2       0.77961    0.65735    0.21944   1.00
H2       0.79820    0.73979    0.21288   1.00
H2       0.78434    0.57993    0.19476   1.00
H2       0.71394    0.57666    0.18220   1.00
H2       0.78815    0.59408    0.16854   1.00
C4       0.16377    0.80711    0.16634   1.00
C4       0.13588    0.83586    0.15268   1.00
C3       0.15420    0.74050    0.16418   1.00
C3       0.09061    0.79878    0.13662   1.00
C3       0.20264    0.84632    0.18334   1.00
C3       0.15397    0.90559    0.15502   1.00
C2       0.21902    0.75141    0.19517   1.00
C2       0.08043    0.89723    0.12599   1.00
C3       0.18071    0.71323    0.17825   1.00
C3       0.06414    0.82876    0.12351   1.00
C3       0.23003    0.81836    0.19715   1.00
C3       0.12444    0.93398    0.14220   1.00
H1       0.12789    0.70992    0.15228   1.00
H1       0.07521    0.74879    0.13403   1.00
C5       0.21414    0.91331    0.18638   1.00
C5       0.20091    0.94648    0.17024   1.00
H1       0.17173    0.66456    0.17598   1.00
H1       0.03209    0.79965    0.11205   1.00
H1       0.25940    0.84777    0.20896   1.00
H1       0.13449    0.98261    0.14489   1.00
O3       0.24159    0.94646    0.20443   1.00
O3       0.22935    1.01655    0.17024   1.00
Si1      0.19126    0.94199    0.22284   1.00
Si1      0.29689    1.06256    0.15641   1.00
C6       0.25484    0.98199    0.24158   1.00
C6       0.15610    0.99322    0.21598   1.00
C6       0.13120    0.85750    0.22978   1.00
C6       0.32876    1.02008    0.14135   1.00
C6       0.27137    1.10828    0.14066   1.00
C6       0.36107    1.12108    0.17275   1.00
C6       0.30697    0.95584    0.24346   1.00
H2       0.28435    1.03400    0.23579   1.00
C6       0.23575    0.98927    0.26398   1.00
H2       0.19441    1.02948    0.20551   1.00
C6       0.08725    0.95946    0.20399   1.00
C6       0.14789    1.03757    0.23273   1.00
H2       0.16297    0.83388    0.23099   1.00
C6       0.09520    0.84666    0.25086   1.00
C6       0.07150    0.81184    0.21483   1.00
C6       0.34861    0.97103    0.15218   1.00
C6       0.29017    0.98284    0.12148   1.00
H2       0.37676    1.06229    0.13578   1.00
H2       0.23436    1.06959    0.13044   1.00
C6       0.23237    1.14062    0.15128   1.00
C6       0.32708    1.16514    0.12693   1.00
H2       0.34888    1.16170    0.17465   1.00
C6       0.36149    1.09549    0.19468   1.00
C6       0.43673    1.15666    0.16518   1.00
H2       0.33185    0.95904    0.22899   1.00
H2       0.28187    0.90284    0.24857   1.00
H2       0.34751    0.98660    0.25427   1.00
H2       0.27599    1.03663    0.27063   1.00
H2       0.18839    0.99032    0.26505   1.00
H2       0.23068    0.94796    0.27371   1.00
H2       0.07867    0.99836    0.19701   1.00
H2       0.08687    0.92725    0.19169   1.00
H2       0.04410    0.92893    0.21399   1.00
H2       0.19635    1.07122    0.24019   1.00
H2       0.13052    1.07074    0.22624   1.00
H2       0.11060    1.00554    0.24415   1.00
H2       0.07151    0.87825    0.25228   1.00
H2       0.05556    0.79353    0.25324   1.00
H2       0.13093    0.85836    0.26327   1.00
H2       0.02729    0.81835    0.21694   1.00
H2       0.08571    0.82182    0.19898   1.00
H2       0.05441    0.75795    0.21746   1.00
H2       0.30444    0.92061    0.15455   1.00
H2       0.38484    0.96415    0.14294   1.00
H2       0.37281    0.99073    0.16681   1.00
H2       0.32095    0.96764    0.11247   1.00
H2       0.24206    0.93669    0.12460   1.00
H2       0.27994    1.01561    0.11173   1.00
H2       0.20871    1.15758    0.13997   1.00
H2       0.19132    1.10362    0.16097   1.00
H2       0.26621    1.18459    0.16057   1.00
H2       0.35574    1.14647    0.11840   1.00
H2       0.30346    1.18281    0.11581   1.00
H2       0.36289    1.20928    0.13586   1.00
H2       0.37068    1.05260    0.19480   1.00
H2       0.40014    1.13596    0.20415   1.00
H2       0.31255    1.07894    0.20186   1.00
H2       0.46998    1.19887    0.17519   1.00
H2       0.45605    1.12106    0.16484   1.00
H2       0.44212    1.17813    0.15005   1.00
C4       1.01706    0.51985    0.66474   1.00
C4       0.96188    0.49089    0.67891   1.00
C3       1.02926    0.48091    0.65020   1.00
C3       0.91722    0.41964    0.68120   1.00
C3       1.06357    0.59158    0.66519   1.00
C3       0.95004    0.53509    0.69156   1.00
C2       1.13174    0.58177    0.63727   1.00
C2       0.85241    0.43627    0.70825   1.00
C3       1.08522    0.51091    0.63692   1.00
C3       0.86359    0.39307    0.69532   1.00
C3       1.11898    0.62104    0.65141   1.00
C3       0.89754    0.50719    0.70629   1.00
H1       0.99772    0.42965    0.64879   1.00
H1       0.92259    0.38494    0.67276   1.00
C5       1.05427    0.63344    0.67935   1.00
C5       0.99093    0.60682    0.68959   1.00
H1       1.09174    0.48011    0.62683   1.00
H1       0.83255    0.34113    0.69619   1.00
H1       1.15083    0.67281    0.65153   1.00
H1       0.89249    0.53936    0.71610   1.00
O3       1.10504    0.70016    0.68204   1.00
O3       0.97226    0.65011    0.69865   1.00
Si1      1.16182    0.71919    0.69987   1.00
Si1      0.91928    0.66719    0.68681   1.00
C6       1.21580    0.80519    0.69292   1.00
C6       1.12131    0.71277    0.72327   1.00
C6       1.20467    0.67220    0.69827   1.00
C6       0.88591    0.62694    0.66325   1.00
C6       0.85244    0.64218    0.70429   1.00
C6       0.95997    0.75643    0.68408   1.00
C6       1.23407    0.81865    0.66982   1.00
H2       1.18386    0.82767    0.69605   1.00
C6       1.28454    0.85113    0.70447   1.00
H2       1.07971    0.72117    0.71876   1.00
C6       1.08690    0.64266    0.73459   1.00
C6       1.16156    0.76723    0.74003   1.00
H2       1.21833    0.67706    0.68221   1.00
C6       1.27319    0.70012    0.71031   1.00
C6       1.16499    0.59372    0.70312   1.00
C6       0.93736    0.63709    0.64594   1.00
C6       0.82952    0.54975    0.66276   1.00
H2       0.85918    0.65296    0.65797   1.00
H2       0.82786    0.58667    0.70445   1.00
C6       0.87388    0.66496    0.72679   1.00
C6       0.79551    0.65960    0.69904   1.00
H2       0.95289    0.77417    0.69879   1.00
C6       1.03868    0.79430    0.68081   1.00
C6       0.93107    0.78613    0.66794   1.00
H2       1.18830    0.79760    0.66040   1.00
H2       1.26443    0.79593    0.66492   1.00
H2       1.26319    0.87327    0.66657   1.00
H2       1.29523    0.90385    0.70494   1.00
H2       1.28378    0.83488    0.72002   1.00
H2       1.32805    0.85224    0.69694   1.00
H2       1.05191    0.64114    0.74629   1.00
H2       1.05668    0.60023    0.72441   1.00
H2       1.12485    0.63385    0.74204   1.00
H2       1.17963    0.81887    0.73447   1.00
H2       1.12914    0.76066    0.75313   1.00
H2       1.20506    0.76332    0.74546   1.00
H2       1.26632    0.70805    0.72627   1.00
H2       1.29357    0.66536    0.70958   1.00
H2       1.31284    0.74779    0.70391   1.00
H2       1.16621    0.58355    0.71925   1.00
H2       1.11186    0.56836    0.69865   1.00
H2       1.18827    0.56829    0.69504   1.00
H2       0.95650    0.60169    0.64736   1.00
H2       0.91253    0.62785    0.63113   1.00
H2       0.98082    0.68869    0.64564   1.00
H2       0.80747    0.53505    0.64757   1.00
H2       0.84951    0.51640    0.66666   1.00
H2       0.78727    0.53856    0.67296   1.00
H2       0.83018    0.63763    0.73693   1.00
H2       0.91293    0.65335    0.73185   1.00
H2       0.89356    0.71946    0.72886   1.00
H2       0.77589    0.64355    0.68371   1.00
H2       0.75224    0.63306    0.70939   1.00
H2       0.81416    0.71418    0.70047   1.00
H2       1.05272    0.77884    0.66679   1.00
H2       1.06041    0.84957    0.68046   1.00
H2       1.06286    0.78316    0.69329   1.00
H2       0.95358    0.84123    0.66986   1.00
H2       0.94224    0.77703    0.65251   1.00
H2       0.87604    0.76401    0.66938   1.00
C4       0.50355    -0.01683   0.66466   1.00
C4       0.52963    0.03839    0.67882   1.00
C3       0.45949    -0.02397   0.64836   1.00
C3       0.50940    0.08848    0.67920   1.00
C3       0.52135    -0.06869   0.66698   1.00
C3       0.57886    0.04455    0.69346   1.00
C2       0.45027    -0.13179   0.63729   1.00
C2       0.58360    0.14764    0.70823   1.00
C3       0.43325    -0.08003   0.63512   1.00
C3       0.53609    0.14198    0.69337   1.00
C3       0.49536    -0.12418   0.65323   1.00
C3       0.60293    0.09715    0.70815   1.00
H1       0.44535    0.01149    0.64559   1.00
H1       0.47436    0.08734    0.66929   1.00
C5       0.56522    -0.06462   0.68296   1.00
C5       0.60339    -0.00205   0.69349   1.00
H1       0.40120    -0.08271   0.62369   1.00
H1       0.52003    0.17706    0.69282   1.00
H1       0.51008    -0.15999   0.65473   1.00
H1       0.63481    0.09830    0.71932   1.00
O3       0.57314    -0.11985   0.68720   1.00
O3       0.66014    0.01057    0.70469   1.00
Si1      0.52520    -0.17507   0.70437   1.00
Si1      0.73564    0.05814    0.69484   1.00
C6       0.55098    -0.23565   0.69975   1.00
C6       0.55374    -0.13608   0.72827   1.00
C6       0.43709    -0.20986   0.69988   1.00
C6       0.74122    0.09378    0.67057   1.00
C6       0.77650    0.12389    0.71271   1.00
C6       0.77692    0.00970    0.69485   1.00
C6       0.55223    -0.25460   0.67694   1.00
H2       0.60432    -0.20826   0.70450   1.00
C6       0.51770    -0.30525   0.71151   1.00
H2       0.60671    -0.09810   0.72509   1.00
C6       0.52073    -0.09563   0.73743   1.00
C6       0.55647    -0.17989   0.74622   1.00
H2       0.43278    -0.22341   0.68382   1.00
C6       0.38712    -0.27717   0.71139   1.00
C6       0.40404    -0.16357   0.70240   1.00
C6       0.70262    0.04418    0.65262   1.00
C6       0.72871    0.15552    0.66823   1.00
H2       0.79527    0.11580    0.66701   1.00
H2       0.75058    0.15332    0.71117   1.00
C6       0.76753    0.10143    0.73549   1.00
C6       0.85420    0.17519    0.70952   1.00
H2       0.79584    0.01447    0.71034   1.00
C6       0.73073    -0.06849   0.69134   1.00
C6       0.84038    0.03320    0.68070   1.00
H2       0.58386    -0.20937   0.66778   1.00
H2       0.50094    -0.28050   0.67045   1.00
H2       0.57363    -0.28821   0.67527   1.00
H2       0.55538    -0.32132   0.71389   1.00
H2       0.49807    -0.30248   0.72630   1.00
H2       0.47567    -0.34625   0.70308   1.00
H2       0.55201    -0.06251   0.74979   1.00
H2       0.51641    -0.06254   0.72629   1.00
H2       0.47019    -0.13011   0.74360   1.00
H2       0.58745    -0.20284   0.74238   1.00
H2       0.57988    -0.14859   0.75969   1.00
H2       0.50536    -0.22016   0.75044   1.00
H2       0.39624    -0.27146   0.72773   1.00
H2       0.33365    -0.29228   0.70879   1.00
H2       0.39207    -0.31989   0.70608   1.00
H2       0.38779    -0.16336   0.71797   1.00
H2       0.43769    -0.11090   0.69814   1.00
H2       0.35872    -0.18257   0.69280   1.00
H2       0.64913    0.03032    0.65214   1.00
H2       0.72512    0.06835    0.63811   1.00
H2       0.70516    -0.00250   0.65344   1.00
H2       0.74335    0.17771    0.65305   1.00
H2       0.67540    0.14067    0.67028   1.00
H2       0.75913    0.19653    0.67886   1.00
H2       0.78447    0.14566    0.74545   1.00
H2       0.71405    0.06621    0.73915   1.00
H2       0.79689    0.07673    0.73932   1.00
H2       0.86508    0.19526    0.69409   1.00
H2       0.87136    0.21894    0.71970   1.00
H2       0.88494    0.15145    0.71274   1.00
H2       0.70641    -0.08003   0.67647   1.00
H2       0.75949    -0.09522   0.69275   1.00
H2       0.69075    -0.08972   0.70272   1.00
H2       0.86739    0.00578    0.68434   1.00
H2       0.82546    0.02359    0.66475   1.00
H2       0.87701    0.08734    0.68248   1.00
C4       0.47963    0.49648    0.66467   1.00
C4       0.50876    0.47039    0.67882   1.00
C3       0.51666    0.54081    0.64842   1.00
C3       0.57914    0.49087    0.67927   1.00
C3       0.40987    0.47839    0.66692   1.00
C3       0.46563    0.42090    0.69339   1.00
C2       0.41795    0.54974    0.63729   1.00
C2       0.56401    0.41639    0.70823   1.00
C3       0.48683    0.56704    0.63518   1.00
C3       0.60594    0.46417    0.69344   1.00
C3       0.38037    0.50438    0.65316   1.00
C3       0.49414    0.39682    0.70809   1.00
H1       0.56632    0.55516    0.64570   1.00
H1       0.61308    0.52610    0.66941   1.00
C5       0.36997    0.43424    0.68283   1.00
C5       0.39445    0.39612    0.69335   1.00
H1       0.51626    0.59929    0.62380   1.00
H1       0.65713    0.48042    0.69294   1.00
H1       0.32978    0.48946    0.65462   1.00
H1       0.46334    0.36473    0.71921   1.00
O3       0.30667    0.42602    0.68702   1.00
O3       0.35033    0.33916    0.70448   1.00
Si1      0.29896    0.47361    0.70423   1.00
Si1      0.32279    0.26384    0.69455   1.00
C6       0.21259    0.44758    0.69952   1.00
C6       0.30926    0.44487    0.72811   1.00
C6       0.35208    0.56182    0.69984   1.00
C6       0.35323    0.25870    0.67030   1.00
C6       0.34767    0.22293    0.71241   1.00
C6       0.23304    0.22226    0.69446   1.00
C6       0.19264    0.44655    0.67670   1.00
H2       0.18675    0.39418    0.70421   1.00
C6       0.17591    0.48049    0.71128   1.00
H2       0.29450    0.39199    0.72488   1.00
C6       0.38262    0.47800    0.73735   1.00
C6       0.26240    0.44172    0.74602   1.00
H2       0.34301    0.56629    0.68378   1.00
C6       0.33436    0.61147    0.71138   1.00
C6       0.43141    0.59510    0.70244   1.00
C6       0.34227    0.29740    0.65237   1.00
C6       0.42761    0.27152    0.66802   1.00
H2       0.32140    0.20468    0.66667   1.00
H2       0.40305    0.24905    0.71093   1.00
C6       0.33383    0.23154    0.73518   1.00
C6       0.32159    0.14533    0.70914   1.00
H2       0.21875    0.20313    0.70993   1.00
C6       0.20084    0.26827    0.69097   1.00
C6       0.19344    0.15895    0.68024   1.00
H2       0.20651    0.41516    0.66752   1.00
H2       0.21795    0.49792    0.67026   1.00
H2       0.13762    0.42498    0.67497   1.00
H2       0.12217    0.44264    0.71359   1.00
H2       0.19808    0.49999    0.72611   1.00
H2       0.17686    0.52255    0.70288   1.00
H2       0.38443    0.44663    0.74968   1.00
H2       0.42022    0.48261    0.72624   1.00
H2       0.39842    0.52842    0.74357   1.00
H2       0.20854    0.41063    0.74213   1.00
H2       0.27024    0.41822    0.75949   1.00
H2       0.27300    0.49271    0.75029   1.00
H2       0.33076    0.60214    0.72771   1.00
H2       0.37259    0.66501    0.70884   1.00
H2       0.28667    0.60639    0.70603   1.00
H2       0.44764    0.61118    0.71804   1.00
H2       0.45067    0.56166    0.69817   1.00
H2       0.45772    0.64055    0.69290   1.00
H2       0.38176    0.35095    0.65196   1.00
H2       0.34422    0.27514    0.63784   1.00
H2       0.29295    0.29466    0.65315   1.00
H2       0.43543    0.25715    0.65283   1.00
H2       0.46590    0.32486    0.67014   1.00
H2       0.43823    0.24108    0.67864   1.00
H2       0.36112    0.21462    0.74515   1.00
H2       0.35186    0.28493    0.73889   1.00
H2       0.27973    0.20196    0.73895   1.00
H2       0.33103    0.13471    0.69370   1.00
H2       0.34817    0.12819    0.71932   1.00
H2       0.26708    0.11438    0.71229   1.00
H2       0.21372    0.29278    0.67612   1.00
H2       0.14534    0.23932    0.69232   1.00
H2       0.21930    0.30809    0.70239   1.00
H2       0.13897    0.13173    0.68381   1.00
H2       0.19890    0.17407    0.66430   1.00
H2       0.21113    0.12245    0.68200   1.00
C4       0.47781    -0.02282   0.16679   1.00
C4       0.50741    0.03393    0.18040   1.00
C3       0.50326    -0.06826   0.16406   1.00
C3       0.56890    0.05455    0.19123   1.00
C3       0.42014    -0.03470   0.15493   1.00
C3       0.47408    0.07256    0.18353   1.00
C2       0.41715    -0.13440   0.13822   1.00
C2       0.56481    0.15025    0.20730   1.00
C3       0.47405    -0.12228   0.15009   1.00
C3       0.59650    0.11071    0.20446   1.00
C3       0.39062    -0.09025   0.14120   1.00
C3       0.50427    0.13071    0.19625   1.00
H1       0.54363    -0.06357   0.17219   1.00
H1       0.59567    0.02964    0.18974   1.00
C5       0.39215    0.00881    0.15693   1.00
C5       0.41117    0.05342    0.17383   1.00
H1       0.49496    -0.15318   0.14867   1.00
H1       0.64079    0.12289    0.21202   1.00
H1       0.34812    -0.09927   0.13321   1.00
H1       0.48209    0.16036    0.19732   1.00
O3       0.34420    0.00429    0.14319   1.00
O3       0.37159    0.08123    0.17964   1.00
Si1      0.36829    0.05374    0.12326   1.00
Si1      0.31924    0.04728    0.19870   1.00
C6       0.28850    0.01505    0.11088   1.00
C6       0.39191    0.13665    0.13159   1.00
C6       0.43025    0.04778    0.10854   1.00
C6       0.31788    -0.02188   0.21157   1.00
C6       0.34502    0.11601    0.21550   1.00
C6       0.23701    0.02387    0.18983   1.00
C6       0.25006    -0.06478   0.10965   1.00
H2       0.25796    0.02713    0.12106   1.00
C6       0.28036    0.03948    0.08930   1.00
H2       0.36244    0.12630    0.14554   1.00
C6       0.46791    0.18558    0.13775   1.00
C6       0.37182    0.18108    0.11825   1.00
H2       0.40855    -0.00737   0.10723   1.00
C6       0.44147    0.07572    0.08630   1.00
C6       0.50446    0.07694    0.11714   1.00
C6       0.30237    -0.08655   0.19896   1.00
C6       0.37770    -0.00829   0.22629   1.00
H2       0.27427    -0.03849   0.22170   1.00
H2       0.39437    0.12543    0.22105   1.00
C6       0.35894    0.18502    0.20586   1.00
C6       0.29973    0.10427    0.23466   1.00
H2       0.23568    0.07139    0.19016   1.00
C6       0.22102    -0.00093   0.16739   1.00
C6       0.17428    -0.02862   0.20261   1.00
H2       0.24322    -0.08773   0.12466   1.00
H2       0.27790    -0.08248   0.10025   1.00
H2       0.19909    -0.08486   0.10319   1.00
H2       0.22986    0.03425    0.08784   1.00
H2       0.31781    0.09248    0.08629   1.00
H2       0.28453    0.00897    0.07715   1.00
H2       0.47277    0.22876    0.14653   1.00
H2       0.48783    0.16033    0.14729   1.00
H2       0.50048    0.20616    0.12440   1.00
H2       0.31698    0.15511    0.11549   1.00
H2       0.38470    0.22906    0.12582   1.00
H2       0.39852    0.19375    0.10372   1.00
H2       0.45212    0.12837    0.08599   1.00
H2       0.48392    0.07429    0.07884   1.00
H2       0.39729    0.04465    0.07685   1.00
H2       0.53705    0.13096    0.11364   1.00
H2       0.50612    0.07167    0.13342   1.00
H2       0.52839    0.04996    0.11037   1.00
H2       0.34791    -0.08069   0.19150   1.00
H2       0.28342    -0.13118   0.20884   1.00
H2       0.26358    -0.09843   0.18744   1.00
H2       0.36492    -0.05397   0.23517   1.00
H2       0.42473    0.00543    0.21822   1.00
H2       0.38805    0.03188    0.23723   1.00
H2       0.38551    0.22686    0.21666   1.00
H2       0.39160    0.19786    0.19248   1.00
H2       0.31188    0.18368    0.20141   1.00
H2       0.28902    0.05795    0.24277   1.00
H2       0.32590    0.14664    0.24533   1.00
H2       0.25136    0.10094    0.23064   1.00
H2       0.22336    -0.04731   0.16487   1.00
H2       0.17066    -0.01057   0.16275   1.00
H2       0.25785    0.03820    0.15737   1.00
H2       0.12739    -0.03089   0.19733   1.00
H2       0.16709    -0.07994   0.20145   1.00
H2       0.17979    -0.01454   0.21860   1.00
C4       1.02027    0.49206    0.16594   1.00
C4       0.96486    0.46621    0.18003   1.00
C3       1.07383    0.47675    0.16690   1.00
C3       0.96075    0.42766    0.19750   1.00
C3       1.02336    0.53660    0.15013   1.00
C3       0.91009    0.47913    0.17660   1.00
C2       1.13230    0.54908    0.13748   1.00
C2       0.85185    0.41705    0.20804   1.00
C3       1.12852    0.50475    0.15314   1.00
C3       0.90551    0.40319    0.21103   1.00
C3       1.07830    0.56330    0.13617   1.00
C3       0.85636    0.45651    0.19087   1.00
H1       1.07457    0.44462    0.17758   1.00
H1       0.99796    0.41658    0.20099   1.00
C5       0.97142    0.55394    0.14831   1.00
C5       0.90944    0.51502    0.15907   1.00
H1       1.16605    0.49224    0.15467   1.00
H1       0.90497    0.37509    0.22331   1.00
H1       1.07885    0.59366    0.12457   1.00
H1       0.81981    0.46990    0.18888   1.00
O3       0.98025    0.60536    0.13530   1.00
O3       0.85137    0.51637    0.15337   1.00
Si1      1.01211    0.68316    0.14380   1.00
Si1      0.79386    0.45359    0.13983   1.00
C6       1.02132    0.72305    0.12008   1.00
C6       0.94869    0.68587    0.15861   1.00
C6       1.09168    0.71401    0.15595   1.00
C6       0.80738    0.38515    0.13383   1.00
C6       0.71978    0.42338    0.15460   1.00
C6       0.78218    0.48917    0.11749   1.00
C6       1.05545    0.70240    0.10291   1.00
H2       0.96839    0.70237    0.11534   1.00
C6       1.05476    0.80258    0.11839   1.00
H2       0.90207    0.64393    0.15222   1.00
C6       0.94605    0.67052    0.18183   1.00
C6       0.94009    0.75014    0.15708   1.00
H2       1.11941    0.70018    0.14516   1.00
C6       1.13628    0.79303    0.15902   1.00
C6       1.09524    0.68333    0.17700   1.00
C6       0.87425    0.40167    0.12230   1.00
C6       0.79711    0.33185    0.15062   1.00
H2       0.76616    0.35566    0.12313   1.00
H2       0.72937    0.39941    0.16756   1.00
C6       0.70580    0.47895    0.16384   1.00
C6       0.65115    0.36783    0.14497   1.00
H2       0.74806    0.50780    0.12207   1.00
C6       0.84662    0.55295    0.10887   1.00
C6       0.74697    0.44069    0.09899   1.00
H2       1.02861    0.64726    0.10059   1.00
H2       1.10858    0.71888    0.10654   1.00
H2       1.05448    0.72521    0.08839   1.00
H2       1.03116    0.81563    0.10603   1.00
H2       1.04917    0.82582    0.13214   1.00
H2       1.10917    0.82746    0.11495   1.00
H2       0.89709    0.65950    0.18830   1.00
H2       0.95112    0.62604    0.18488   1.00
H2       0.98601    0.71406    0.19004   1.00
H2       0.93131    0.75972    0.14145   1.00
H2       0.89589    0.74322    0.16576   1.00
H2       0.98491    0.79543    0.16300   1.00
H2       1.10762    0.81324    0.16683   1.00
H2       1.18228    0.80699    0.16790   1.00
H2       1.15457    0.81931    0.14463   1.00
H2       1.08723    0.70955    0.18967   1.00
H2       1.05827    0.62961    0.17858   1.00
H2       1.14558    0.68857    0.17905   1.00
H2       0.91719    0.41798    0.13263   1.00
H2       0.86791    0.35637    0.11442   1.00
H2       0.88805    0.44118    0.11089   1.00
H2       0.79780    0.28797    0.14394   1.00
H2       0.83714    0.35298    0.16203   1.00
H2       0.74808    0.31169    0.15828   1.00
H2       0.66590    0.45647    0.17540   1.00
H2       0.75119    0.51942    0.17127   1.00
H2       0.68929    0.50227    0.15234   1.00
H2       0.65554    0.32569    0.13863   1.00
H2       0.61100    0.34609    0.15648   1.00
H2       0.63409    0.38926    0.13302   1.00
H2       0.88616    0.54147    0.10441   1.00
H2       0.83424    0.57420    0.09575   1.00
H2       0.86802    0.59271    0.12031   1.00
H2       0.73332    0.46621    0.08735   1.00
H2       0.78060    0.42491    0.09196   1.00
H2       0.69991    0.39501    0.10340   1.00
C4       0.50824    0.52792    0.16573   1.00
C4       0.53418    0.49855    0.17985   1.00
C3       0.53137    0.59882    0.16466   1.00
C3       0.58122    0.53619    0.19549   1.00
C3       0.45547    0.48432    0.15204   1.00
C3       0.51240    0.42766    0.17838   1.00
C2       0.45081    0.58293    0.13742   1.00
C2       0.58306    0.43511    0.20810   1.00
C3       0.50322    0.62557    0.15098   1.00
C3       0.60551    0.50552    0.20912   1.00
C3       0.42862    0.51245    0.13809   1.00
C3       0.53523    0.39715    0.19280   1.00
H1       0.56952    0.63313    0.17375   1.00
H1       0.59891    0.58691    0.19753   1.00
C5       0.43005    0.41294    0.15230   1.00
C5       0.46753    0.38743    0.16268   1.00
H1       0.52165    0.67721    0.15100   1.00
H1       0.63993    0.53539    0.22001   1.00
H1       0.39212    0.48078    0.12798   1.00
H1       0.51581    0.34556    0.19234   1.00
O3       0.37192    0.37009    0.14156   1.00
O3       0.45655    0.32286    0.15852   1.00
Si1      0.29772    0.33524    0.15279   1.00
Si1      0.50974    0.31499    0.14362   1.00
C6       0.24737    0.29941    0.13090   1.00
C6       0.29300    0.27141    0.16914   1.00
C6       0.28023    0.39524    0.16430   1.00
C6       0.58077    0.38997    0.13419   1.00
C6       0.53819    0.27019    0.15867   1.00
C6       0.46185    0.26161    0.12340   1.00
C6       0.26631    0.34800    0.11210   1.00
H2       0.26053    0.26088    0.12654   1.00
C6       0.16742    0.26085    0.13207   1.00
H2       0.32858    0.25849    0.16202   1.00
C6       0.31822    0.29139    0.19151   1.00
C6       0.22387    0.20264    0.17079   1.00
H2       0.29380    0.43317    0.15230   1.00
C6       0.20415    0.37067    0.16990   1.00
C6       0.32143    0.43505    0.18366   1.00
C6       0.56710    0.44097    0.12189   1.00
C6       0.64224    0.43444    0.14862   1.00
H2       0.60222    0.36969    0.12323   1.00
H2       0.56981    0.30718    0.17018   1.00
C6       0.48191    0.20776    0.17072   1.00
C6       0.58399    0.24539    0.14825   1.00
H2       0.43992    0.21022    0.12963   1.00
C6       0.39947    0.26763    0.11622   1.00
C6       0.50079    0.26223    0.10369   1.00
H2       0.31986    0.36958    0.10791   1.00
H2       0.25712    0.39018    0.11516   1.00
H2       0.23634    0.32058    0.09878   1.00
H2       0.14575    0.21936    0.12100   1.00
H2       0.14794    0.23869    0.14690   1.00
H2       0.14670    0.29402    0.12848   1.00
H2       0.32631    0.25234    0.19860   1.00
H2       0.36676    0.33881    0.19235   1.00
H2       0.28087    0.29649    0.20067   1.00
H2       0.20637    0.17876    0.15597   1.00
H2       0.22915    0.16564    0.18016   1.00
H2       0.18436    0.21040    0.17765   1.00
H2       0.18254    0.32477    0.17927   1.00
H2       0.19884    0.40961    0.17821   1.00
H2       0.17299    0.36041    0.15640   1.00
H2       0.29808    0.40720    0.19763   1.00
H2       0.37381    0.44610    0.18366   1.00
H2       0.32305    0.48405    0.18471   1.00
H2       0.55954    0.47505    0.13183   1.00
H2       0.61062    0.47303    0.11214   1.00
H2       0.52272    0.41490    0.11206   1.00
H2       0.68565    0.47307    0.13997   1.00
H2       0.62972    0.46143    0.15992   1.00
H2       0.66040    0.40417    0.15647   1.00
H2       0.50522    0.19069    0.18212   1.00
H2       0.44814    0.22113    0.17885   1.00
H2       0.45070    0.16462    0.16081   1.00
H2       0.62617    0.28644    0.13991   1.00
H2       0.60648    0.22736    0.15963   1.00
H2       0.55452    0.20325    0.13781   1.00
H2       0.41463    0.31821    0.11030   1.00
H2       0.37030    0.23016    0.10450   1.00
H2       0.36508    0.25787    0.12887   1.00
H2       0.46758    0.22003    0.09367   1.00
H2       0.51868    0.30958    0.09518   1.00
H2       0.54464    0.25631    0.10711   1.00
C4       0.64398    0.81146    0.66660   1.00
C4       0.70074    0.84099    0.65299   1.00
C3       0.60096    0.83929    0.67020   1.00
C3       0.72386    0.90447    0.64306   1.00
C3       0.62956    0.75131    0.67754   1.00
C3       0.73673    0.80550    0.64892   1.00
C2       0.53226    0.75061    0.69512   1.00
C2       0.81691    0.89803    0.62604   1.00
C3       0.54687    0.80997    0.68415   1.00
C3       0.77995    0.93194    0.62981   1.00
C3       0.57397    0.72178    0.69126   1.00
C3       0.79489    0.83544    0.63620   1.00
H1       0.60752    0.88155    0.66274   1.00
H1       0.70091    0.93284    0.64526   1.00
C5       0.67057    0.72087    0.67465   1.00
C5       0.71498    0.74067    0.65769   1.00
H1       0.51780    0.83263    0.68623   1.00
H1       0.79401    0.97775    0.62291   1.00
H1       0.56308    0.67757    0.69858   1.00
H1       0.82268    0.81147    0.63446   1.00
O3       0.66380    0.67002    0.68757   1.00
O3       0.74012    0.69972    0.65092   1.00
Si1      0.71317    0.68928    0.70743   1.00
Si1      0.70446    0.65068    0.63129   1.00
C6       0.67154    0.60773    0.71876   1.00
C6       0.79513    0.71063    0.69875   1.00
C6       0.71042    0.75072    0.72327   1.00
C6       0.63701    0.65457    0.61906   1.00
C6       0.77271    0.67619    0.61431   1.00
C6       0.67759    0.56642    0.63893   1.00
C6       0.59185    0.57212    0.72006   1.00
H2       0.68180    0.57743    0.70794   1.00
C6       0.69494    0.59501    0.73993   1.00
H2       0.78359    0.68308    0.68439   1.00
C6       0.84656    0.78688    0.69347   1.00
C6       0.83743    0.68594    0.71129   1.00
H2       0.65562    0.73103    0.72472   1.00
C6       0.73820    0.75752    0.74542   1.00
C6       0.74250    0.82646    0.71572   1.00
C6       0.57322    0.63998    0.63199   1.00
C6       0.65320    0.71726    0.60528   1.00
H2       0.61867    0.61230    0.60833   1.00
H2       0.78432    0.72702    0.60955   1.00
C6       0.84064    0.68564    0.62354   1.00
C6       0.75904    0.63331    0.59449   1.00
H2       0.72383    0.56280    0.63812   1.00
C6       0.65264    0.54794    0.66128   1.00
C6       0.62336    0.50673    0.62555   1.00
H2       0.56915    0.56848    0.70517   1.00
H2       0.57598    0.60006    0.73010   1.00
H2       0.56977    0.52003    0.72581   1.00
H2       0.68735    0.54341    0.74056   1.00
H2       0.74843    0.63027    0.74310   1.00
H2       0.66542    0.59894    0.75243   1.00
H2       0.88888    0.79105    0.68437   1.00
H2       0.82293    0.80990    0.68453   1.00
H2       0.86821    0.81718    0.70717   1.00
H2       0.80942    0.63072    0.71333   1.00
H2       0.88482    0.69791    0.70351   1.00
H2       0.85109    0.71047    0.72616   1.00
H2       0.79003    0.76581    0.74542   1.00
H2       0.73890    0.79988    0.75363   1.00
H2       0.70574    0.71245    0.75437   1.00
H2       0.79674    0.85663    0.71928   1.00
H2       0.73744    0.83084    0.69953   1.00
H2       0.71739    0.85123    0.72315   1.00
H2       0.58118    0.68514    0.64019   1.00
H2       0.52880    0.62424    0.62222   1.00
H2       0.55973    0.59917    0.64293   1.00
H2       0.60806    0.70773    0.59662   1.00
H2       0.66889    0.76348    0.61404   1.00
H2       0.69285    0.72752    0.59416   1.00
H2       0.88272    0.71238    0.61282   1.00
H2       0.85476    0.71641    0.63735   1.00
H2       0.83701    0.63692    0.62717   1.00
H2       0.71336    0.62582    0.58665   1.00
H2       0.80161    0.65960    0.58390   1.00
H2       0.75340    0.58342    0.59769   1.00
H2       0.60756    0.55220    0.66428   1.00
H2       0.64076    0.49622    0.66513   1.00
H2       0.69258    0.58219    0.67157   1.00
H2       0.61883    0.45812    0.63002   1.00
H2       0.57298    0.50170    0.62707   1.00
H2       0.63734    0.51406    0.60955   1.00
C4       0.16768    0.35317    0.66764   1.00
C4       0.13963    0.29666    0.65393   1.00
C3       0.21289    0.36105    0.68368   1.00
C3       0.14900    0.23945    0.65602   1.00
C3       0.14902    0.40445    0.66552   1.00
C3       0.10004    0.29680    0.63710   1.00
C2       0.21952    0.46718    0.69533   1.00
C2       0.07993    0.18365    0.62583   1.00
C3       0.23782    0.41625    0.69722   1.00
C3       0.12052    0.18478    0.64225   1.00
C3       0.17573    0.46042    0.67911   1.00
C3       0.06938    0.23989    0.62391   1.00
H1       0.22923    0.32704    0.68595   1.00
H1       0.17642    0.23560    0.66767   1.00
C5       0.10403    0.39966    0.64979   1.00
C5       0.09069    0.35335    0.63361   1.00
H1       0.26997    0.41901    0.70863   1.00
H1       0.12949    0.14505    0.64442   1.00
H1       0.16339    0.49779    0.67706   1.00
H1       0.03763    0.23882    0.61271   1.00
O3       0.07730    0.44257    0.64983   1.00
O3       0.06450    0.36075    0.61546   1.00
Si1      0.00333    0.41794    0.66039   1.00
Si1      0.11622    0.39649    0.59637   1.00
C6       0.00537    0.49674    0.65868   1.00
C6       -0.05958   0.35644    0.64431   1.00
C6       -0.00089   0.39226    0.68588   1.00
C6       0.20313    0.42143    0.59960   1.00
C6       0.08067    0.33423    0.57729   1.00
C6       0.10834    0.46681    0.58877   1.00
C6       0.07320    0.56093    0.66578   1.00
H2       0.00308    0.50279    0.64232   1.00
C6       -0.05345   0.50602    0.66787   1.00
H2       -0.03398   0.36992    0.62962   1.00
C6       -0.08199   0.27969    0.64775   1.00
C6       -0.12756   0.35752    0.64120   1.00
H2       0.04625    0.43386    0.69220   1.00
C6       -0.06018   0.38800    0.69922   1.00
C6       -0.00069   0.32446    0.69084   1.00
C6       0.24333    0.47208    0.61719   1.00
C6       0.22500    0.36583    0.59982   1.00
H2       0.22599    0.44979    0.58567   1.00
H2       0.09026    0.29410    0.58255   1.00
C6       0.00150    0.29896    0.57456   1.00
C6       0.11241    0.35460    0.55559   1.00
H2       0.06236    0.44432    0.57943   1.00
C6       0.09446    0.50566    0.60594   1.00
C6       0.16626    0.52282    0.57530   1.00
H2       0.11734    0.56533    0.65770   1.00
H2       0.08162    0.55875    0.68202   1.00
H2       0.07225    0.60794    0.66279   1.00
H2       -0.06102   0.54182    0.65864   1.00
H2       -0.10194   0.45864    0.66857   1.00
H2       -0.04171   0.52718    0.68319   1.00
H2       -0.10940   0.24911    0.63452   1.00
H2       -0.03857   0.27221    0.65000   1.00
H2       -0.11595   0.25882    0.66080   1.00
H2       -0.11785   0.40711    0.63578   1.00
H2       -0.15986   0.32039    0.62975   1.00
H2       -0.15687   0.34511    0.65527   1.00
H2       -0.10968   0.35586    0.69207   1.00
H2       -0.06159   0.36718    0.71431   1.00
H2       -0.05367   0.43824    0.70193   1.00
H2       -0.05194   0.28004    0.69062   1.00
H2       0.02998    0.31391    0.68046   1.00
H2       0.02002    0.32734    0.70603   1.00
H2       0.23546    0.44575    0.63163   1.00
H2       0.29812    0.49853    0.61413   1.00
H2       0.22908    0.51109    0.61904   1.00
H2       0.28054    0.38960    0.59904   1.00
H2       0.20885    0.33518    0.61357   1.00
H2       0.20498    0.33162    0.58682   1.00
H2       -0.01701   0.25370    0.56496   1.00
H2       -0.02497   0.28182    0.58909   1.00
H2       -0.01377   0.33289    0.56753   1.00
H2       0.16781    0.37794    0.55595   1.00
H2       0.09310    0.30944    0.54590   1.00
H2       0.09948    0.39001    0.54832   1.00
H2       0.13614    0.52857    0.61686   1.00
H2       0.08628    0.54586    0.59985   1.00
H2       0.04848    0.47060    0.61411   1.00
H2       0.15065    0.55769    0.56908   1.00
H2       0.21291    0.55320    0.58404   1.00
H2       0.17844    0.50063    0.56242   1.00
C4       0.18556    0.83221    0.66757   1.00
C4       0.15704    0.86024    0.65387   1.00
C3       0.14744    0.78444    0.68300   1.00
C3       0.08931    0.84812    0.65541   1.00
C3       0.25635    0.85357    0.66610   1.00
C3       0.19794    0.90271    0.63764   1.00
C2       0.24773    0.78051    0.69531   1.00
C2       0.10363    0.92004    0.62585   1.00
C3       0.17770    0.75957    0.69656   1.00
C3       0.06310    0.87666    0.64168   1.00
C3       0.28564    0.82690    0.67969   1.00
C3       0.17150    0.93331    0.62449   1.00
H1       0.09652    0.76614    0.68478   1.00
H1       0.05716    0.81855    0.66662   1.00
C5       0.29735    0.90119    0.65100   1.00
C5       0.26515    0.91495    0.63470   1.00
H1       0.14769    0.72548    0.70751   1.00
H1       0.01356    0.86564    0.64342   1.00
H1       0.33605    0.84124    0.67809   1.00
H1       0.20282    0.96703    0.61375   1.00
O3       0.36723    0.93016    0.65175   1.00
O3       0.30049    0.94422    0.61700   1.00
Si1      0.41321    1.00320    0.66319   1.00
Si1      0.28864    0.89538    0.59743   1.00
C6       0.49174    1.00452    0.66203   1.00
C6       0.41398    1.06683    0.64760   1.00
C6       0.38808    1.00324    0.68854   1.00
C6       0.22868    0.80743    0.59958   1.00
C6       0.26224    0.93149    0.57844   1.00
C6       0.36895    0.90721    0.59046   1.00
C6       0.48998    0.93711    0.66859   1.00
H2       0.50212    1.00916    0.64575   1.00
C6       0.55762    1.06367    0.67213   1.00
H2       0.40446    1.04316    0.63264   1.00
C6       0.35725    1.08614    0.65081   1.00
C6       0.48194    1.13653    0.64549   1.00
H2       0.38362    0.95610    0.69447   1.00
C6       0.44012    1.06180    0.70269   1.00
C6       0.31817    0.99967    0.69299   1.00
C6       0.23886    0.76630    0.61693   1.00
C6       0.15057    0.78287    0.59907   1.00
H2       0.23690    0.78704    0.58553   1.00
H2       0.21132    0.91943    0.58326   1.00
C6       0.30405    1.01107    0.57661   1.00
C6       0.25458    0.90271    0.55644   1.00
H2       0.39212    0.95432    0.58164   1.00
C6       0.42005    0.92075    0.60810   1.00
C6       0.37101    0.85216    0.57657   1.00
H2       0.45226    0.89333    0.65991   1.00
H2       0.47757    0.92640    0.68468   1.00
H2       0.53919    0.94036    0.66596   1.00
H2       0.60263    1.07399    0.66328   1.00
H2       0.55666    1.11107    0.67319   1.00
H2       0.56587    1.05063    0.68742   1.00
H2       0.35448    1.11450    0.63776   1.00
H2       0.30689    1.04131    0.65237   1.00
H2       0.36762    1.11825    0.66419   1.00
H2       0.52366    1.12933    0.64029   1.00
H2       0.47707    1.16940    0.63425   1.00
H2       0.49627    1.16413    0.65988   1.00
H2       0.45663    1.11184    0.69604   1.00
H2       0.41846    1.06049    0.71764   1.00
H2       0.48464    1.05685    0.70567   1.00
H2       0.32305    1.05013    0.69320   1.00
H2       0.27867    0.96931    0.68210   1.00
H2       0.29902    0.97678    0.70789   1.00
H2       0.21798    0.77144    0.63127   1.00
H2       0.21261    0.71193    0.61326   1.00
H2       0.29235    0.78216    0.61927   1.00
H2       0.12058    0.72734    0.59765   1.00
H2       0.13348    0.79636    0.61282   1.00
H2       0.13685    0.80353    0.58613   1.00
H2       0.27718    1.02931    0.56696   1.00
H2       0.31071    1.03552    0.59138   1.00
H2       0.35442    1.02889    0.57005   1.00
H2       0.22415    0.84716    0.55616   1.00
H2       0.22861    0.92179    0.54671   1.00
H2       0.30420    0.91823    0.54962   1.00
H2       0.40133    0.87783    0.61857   1.00
H2       0.46977    0.93149    0.60242   1.00
H2       0.42830    0.96516    0.61668   1.00
H2       0.42259    0.87026    0.57083   1.00
H2       0.35531    0.80476    0.58484   1.00
H2       0.33804    0.84048    0.56336   1.00
