data_IRMOF10_interpen_symm_ligand2cp_label_c.

_audit_creation_method             'generated by an auxiliary program of Tobunporous'

_symmetry_space_group_name_H-M     'P 1'
_symmetry_Int_Tables_number        1
_symmetry_cell_setting             triclinic

_cell_length_a                    22.6523
_cell_length_b                    22.6523
_cell_length_c                    65.9502
_cell_angle_alpha                 90.0000
_cell_angle_beta                  90.0000
_cell_angle_gamma                 120.0000

loop_
_atom_site_label
_atom_site_fract_x
_atom_site_fract_y
_atom_site_fract_z
_atom_site_occupancy
O1       0.00000    0.00000    0.57470   1.00
Zn      0.00000    0.00000    0.54560   1.00
Zn      0.94843    0.04287    0.58357   1.00
Zn      0.09443    0.05157    0.58357   1.00
Zn      0.95713    0.90557    0.58357   1.00
O2       0.93860    0.02610    0.53560   1.00
O2       0.08750    0.06140    0.53560   1.00
O2       0.97390    0.91250    0.53560   1.00
O2       0.91300    0.07160    0.56150   1.00
O2       0.00463    0.12027    0.60077   1.00
O2       0.87413    0.98077    0.60037   1.00
O2       0.15860    0.08700    0.56150   1.00
O2       0.10663    0.12587    0.60037   1.00
O2       0.11563    0.99537    0.60077   1.00
O2       0.92840    0.84140    0.56150   1.00
O2       0.87973    0.88437    0.60077   1.00
O2       0.01923    0.89337    0.60037   1.00
C1       0.91390    0.06020    0.54330   1.00
C1       0.14630    0.08610    0.54330   1.00
C1       0.93980    0.85370    0.54330   1.00
C1       0.06663    0.14397    0.60637   1.00
C1       0.85603    0.92267    0.60637   1.00
C1       0.07733    0.93337    0.60637   1.00
O1       0.00000    0.00000    0.92530   1.00
Zn      0.00000    0.00000    0.95440   1.00
Zn      0.04287    0.94843    0.91643   1.00
Zn      0.05157    0.09443    0.91643   1.00
Zn      0.90557    0.95713    0.91643   1.00
O2       0.02610    0.93860    0.96440   1.00
O2       0.06140    0.08750    0.96440   1.00
O2       0.91250    0.97390    0.96440   1.00
O2       0.07160    0.91300    0.93850   1.00
O2       0.12027    0.00463    0.89923   1.00
O2       0.98077    0.87413    0.89963   1.00
O2       0.08700    0.15860    0.93850   1.00
O2       0.12587    0.10663    0.89963   1.00
O2       0.99537    0.11563    0.89923   1.00
O2       0.84140    0.92840    0.93850   1.00
O2       0.88437    0.87973    0.89923   1.00
O2       0.89337    0.01923    0.89963   1.00
C1       0.06020    0.91390    0.95670   1.00
C1       0.08610    0.14630    0.95670   1.00
C1       0.85370    0.93980    0.95670   1.00
C1       0.14397    0.06663    0.89363   1.00
C1       0.92267    0.85603    0.89363   1.00
C1       0.93337    0.07733    0.89363   1.00
O1       0.00000    0.00000    0.42530   1.00
Zn      0.00000    0.00000    0.45440   1.00
Zn      0.05157    0.95713    0.41643   1.00
Zn      0.90557    0.94843    0.41643   1.00
Zn      0.04287    0.09443    0.41643   1.00
O2       0.06140    0.97390    0.46440   1.00
O2       0.91250    0.93860    0.46440   1.00
O2       0.02610    0.08750    0.46440   1.00
O2       0.08700    0.92840    0.43850   1.00
O2       0.99537    0.87973    0.39923   1.00
O2       0.12587    0.01923    0.39963   1.00
O2       0.84140    0.91300    0.43850   1.00
O2       0.89337    0.87413    0.39963   1.00
O2       0.88437    0.00463    0.39923   1.00
O2       0.07160    0.15860    0.43850   1.00
O2       0.12027    0.11563    0.39923   1.00
O2       0.98077    0.10663    0.39963   1.00
C1       0.08610    0.93980    0.45670   1.00
C1       0.85370    0.91390    0.45670   1.00
C1       0.06020    0.14630    0.45670   1.00
C1       0.93337    0.85603    0.39363   1.00
C1       0.14397    0.07733    0.39363   1.00
C1       0.92267    0.06663    0.39363   1.00
O1       0.00000    0.00000    0.07470   1.00
Zn      0.00000    0.00000    0.04560   1.00
Zn      0.95713    0.05157    0.08357   1.00
Zn      0.94843    0.90557    0.08357   1.00
Zn      0.09443    0.04287    0.08357   1.00
O2       0.97390    0.06140    0.03560   1.00
O2       0.93860    0.91250    0.03560   1.00
O2       0.08750    0.02610    0.03560   1.00
O2       0.92840    0.08700    0.06150   1.00
O2       0.87973    0.99537    0.10077   1.00
O2       0.01923    0.12587    0.10037   1.00
O2       0.91300    0.84140    0.06150   1.00
O2       0.87413    0.89337    0.10037   1.00
O2       0.00463    0.88437    0.10077   1.00
O2       0.15860    0.07160    0.06150   1.00
O2       0.11563    0.12027    0.10077   1.00
O2       0.10663    0.98077    0.10037   1.00
C1       0.93980    0.08610    0.04330   1.00
C1       0.91390    0.85370    0.04330   1.00
C1       0.14630    0.06020    0.04330   1.00
C1       0.85603    0.93337    0.10637   1.00
C1       0.07733    0.14397    0.10637   1.00
C1       0.06663    0.92267    0.10637   1.00
O1       0.66667    0.33333    0.90803   1.00
Zn      0.66667    0.33333    0.87893   1.00
Zn      0.61510    0.37620    0.91690   1.00
Zn      0.76110    0.38490    0.91690   1.00
Zn      0.62380    0.23890    0.91690   1.00
O2       0.60527    0.35943    0.86893   1.00
O2       0.75417    0.39473    0.86893   1.00
O2       0.64057    0.24583    0.86893   1.00
O2       0.57967    0.40493    0.89483   1.00
O2       0.67130    0.45360    0.93410   1.00
O2       0.54080    0.31410    0.93370   1.00
O2       0.82527    0.42033    0.89483   1.00
O2       0.77330    0.45920    0.93370   1.00
O2       0.78230    0.32870    0.93410   1.00
O2       0.59507    0.17473    0.89483   1.00
O2       0.54640    0.21770    0.93410   1.00
O2       0.68590    0.22670    0.93370   1.00
C1       0.58057    0.39353    0.87663   1.00
C1       0.81297    0.41943    0.87663   1.00
C1       0.60647    0.18703    0.87663   1.00
C1       0.73330    0.47730    0.93970   1.00
C1       0.52270    0.25600    0.93970   1.00
C1       0.74400    0.26670    0.93970   1.00
O1       0.66667    0.33333    0.25863   1.00
Zn      0.66667    0.33333    0.28773   1.00
Zn      0.70953    0.28177    0.24977   1.00
Zn      0.71823    0.42777    0.24977   1.00
Zn      0.57223    0.29047    0.24977   1.00
O2       0.69277    0.27193    0.29773   1.00
O2       0.72807    0.42083    0.29773   1.00
O2       0.57917    0.30723    0.29773   1.00
O2       0.73827    0.24633    0.27183   1.00
O2       0.78693    0.33797    0.23257   1.00
O2       0.64743    0.20747    0.23297   1.00
O2       0.75367    0.49193    0.27183   1.00
O2       0.79253    0.43997    0.23297   1.00
O2       0.66203    0.44897    0.23257   1.00
O2       0.50807    0.26173    0.27183   1.00
O2       0.55103    0.21307    0.23257   1.00
O2       0.56003    0.35257    0.23297   1.00
C1       0.72687    0.24723    0.29003   1.00
C1       0.75277    0.47963    0.29003   1.00
C1       0.52037    0.27313    0.29003   1.00
C1       0.81063    0.39997    0.22697   1.00
C1       0.58933    0.18937    0.22697   1.00
C1       0.60003    0.41067    0.22697   1.00
O1       0.66667    0.33333    0.75863   1.00
Zn      0.66667    0.33333    0.78773   1.00
Zn      0.71823    0.29047    0.74977   1.00
Zn      0.57223    0.28177    0.74977   1.00
Zn      0.70953    0.42777    0.74977   1.00
O2       0.72807    0.30723    0.79773   1.00
O2       0.57917    0.27193    0.79773   1.00
O2       0.69277    0.42083    0.79773   1.00
O2       0.75367    0.26173    0.77183   1.00
O2       0.66203    0.21307    0.73257   1.00
O2       0.79253    0.35257    0.73297   1.00
O2       0.50807    0.24633    0.77183   1.00
O2       0.56003    0.20747    0.73297   1.00
O2       0.55103    0.33797    0.73257   1.00
O2       0.73827    0.49193    0.77183   1.00
O2       0.78693    0.44897    0.73257   1.00
O2       0.64743    0.43997    0.73297   1.00
C1       0.75277    0.27313    0.79003   1.00
C1       0.52037    0.24723    0.79003   1.00
C1       0.72687    0.47963    0.79003   1.00
C1       0.60003    0.18937    0.72697   1.00
C1       0.81063    0.41067    0.72697   1.00
C1       0.58933    0.39997    0.72697   1.00
O1       0.66667    0.33333    0.40803   1.00
Zn      0.66667    0.33333    0.37893   1.00
Zn      0.62380    0.38490    0.41690   1.00
Zn      0.61510    0.23890    0.41690   1.00
Zn      0.76110    0.37620    0.41690   1.00
O2       0.64057    0.39473    0.36893   1.00
O2       0.60527    0.24583    0.36893   1.00
O2       0.75417    0.35943    0.36893   1.00
O2       0.59507    0.42033    0.39483   1.00
O2       0.54640    0.32870    0.43410   1.00
O2       0.68590    0.45920    0.43370   1.00
O2       0.57967    0.17473    0.39483   1.00
O2       0.54080    0.22670    0.43370   1.00
O2       0.67130    0.21770    0.43410   1.00
O2       0.82527    0.40493    0.39483   1.00
O2       0.78230    0.45360    0.43410   1.00
O2       0.77330    0.31410    0.43370   1.00
C1       0.60647    0.41943    0.37663   1.00
C1       0.58057    0.18703    0.37663   1.00
C1       0.81297    0.39353    0.37663   1.00
C1       0.52270    0.26670    0.43970   1.00
C1       0.74400    0.47730    0.43970   1.00
C1       0.73330    0.25600    0.43970   1.00
O1       0.33333    0.66667    0.24137   1.00
Zn      0.33333    0.66667    0.21227   1.00
Zn      0.28177    0.70953    0.25023   1.00
Zn      0.42777    0.71823    0.25023   1.00
Zn      0.29047    0.57223    0.25023   1.00
O2       0.27193    0.69277    0.20227   1.00
O2       0.42083    0.72807    0.20227   1.00
O2       0.30723    0.57917    0.20227   1.00
O2       0.24633    0.73827    0.22817   1.00
O2       0.33797    0.78693    0.26743   1.00
O2       0.20747    0.64743    0.26703   1.00
O2       0.49193    0.75367    0.22817   1.00
O2       0.43997    0.79253    0.26703   1.00
O2       0.44897    0.66203    0.26743   1.00
O2       0.26173    0.50807    0.22817   1.00
O2       0.21307    0.55103    0.26743   1.00
O2       0.35257    0.56003    0.26703   1.00
C1       0.24723    0.72687    0.20997   1.00
C1       0.47963    0.75277    0.20997   1.00
C1       0.27313    0.52037    0.20997   1.00
C1       0.39997    0.81063    0.27303   1.00
C1       0.18937    0.58933    0.27303   1.00
C1       0.41067    0.60003    0.27303   1.00
O1       0.33333    0.66667    0.59197   1.00
Zn      0.33333    0.66667    0.62107   1.00
Zn      0.37620    0.61510    0.58310   1.00
Zn      0.38490    0.76110    0.58310   1.00
Zn      0.23890    0.62380    0.58310   1.00
O2       0.35943    0.60527    0.63107   1.00
O2       0.39473    0.75417    0.63107   1.00
O2       0.24583    0.64057    0.63107   1.00
O2       0.40493    0.57967    0.60517   1.00
O2       0.45360    0.67130    0.56590   1.00
O2       0.31410    0.54080    0.56630   1.00
O2       0.42033    0.82527    0.60517   1.00
O2       0.45920    0.77330    0.56630   1.00
O2       0.32870    0.78230    0.56590   1.00
O2       0.17473    0.59507    0.60517   1.00
O2       0.21770    0.54640    0.56590   1.00
O2       0.22670    0.68590    0.56630   1.00
C1       0.39353    0.58057    0.62337   1.00
C1       0.41943    0.81297    0.62337   1.00
C1       0.18703    0.60647    0.62337   1.00
C1       0.47730    0.73330    0.56030   1.00
C1       0.25600    0.52270    0.56030   1.00
C1       0.26670    0.74400    0.56030   1.00
O1       0.33333    0.66667    0.09197   1.00
Zn      0.33333    0.66667    0.12107   1.00
Zn      0.38490    0.62380    0.08310   1.00
Zn      0.23890    0.61510    0.08310   1.00
Zn      0.37620    0.76110    0.08310   1.00
O2       0.39473    0.64057    0.13107   1.00
O2       0.24583    0.60527    0.13107   1.00
O2       0.35943    0.75417    0.13107   1.00
O2       0.42033    0.59507    0.10517   1.00
O2       0.32870    0.54640    0.06590   1.00
O2       0.45920    0.68590    0.06630   1.00
O2       0.17473    0.57967    0.10517   1.00
O2       0.22670    0.54080    0.06630   1.00
O2       0.21770    0.67130    0.06590   1.00
O2       0.40493    0.82527    0.10517   1.00
O2       0.45360    0.78230    0.06590   1.00
O2       0.31410    0.77330    0.06630   1.00
C1       0.41943    0.60647    0.12337   1.00
C1       0.18703    0.58057    0.12337   1.00
C1       0.39353    0.81297    0.12337   1.00
C1       0.26670    0.52270    0.06030   1.00
C1       0.47730    0.74400    0.06030   1.00
C1       0.25600    0.73330    0.06030   1.00
O1       0.33333    0.66667    0.74137   1.00
Zn      0.33333    0.66667    0.71227   1.00
Zn      0.29047    0.71823    0.75023   1.00
Zn      0.28177    0.57223    0.75023   1.00
Zn      0.42777    0.70953    0.75023   1.00
O2       0.30723    0.72807    0.70227   1.00
O2       0.27193    0.57917    0.70227   1.00
O2       0.42083    0.69277    0.70227   1.00
O2       0.26173    0.75367    0.72817   1.00
O2       0.21307    0.66203    0.76743   1.00
O2       0.35257    0.79253    0.76703   1.00
O2       0.24633    0.50807    0.72817   1.00
O2       0.20747    0.56003    0.76703   1.00
O2       0.33797    0.55103    0.76743   1.00
O2       0.49193    0.73827    0.72817   1.00
O2       0.44897    0.78693    0.76743   1.00
O2       0.43997    0.64743    0.76703   1.00
C1       0.27313    0.75277    0.70997   1.00
C1       0.24723    0.52037    0.70997   1.00
C1       0.47963    0.72687    0.70997   1.00
C1       0.18937    0.60003    0.77303   1.00
C1       0.41067    0.81063    0.77303   1.00
C1       0.39997    0.58933    0.77303   1.00
C2       0.77269    0.51809    0.46078   1.00
C3       0.74397    0.51650    0.47850   1.00
H1       0.70433    0.47696    0.48221   1.00
C3       0.83163    0.57571    0.45592   1.00
H1       0.85311    0.57755    0.44373   1.00
C3a      0.77079    0.57104    0.49162   1.00
H1       0.75086    0.56990    0.50405   1.00
C3b      0.86049    0.63164    0.46863   1.00
H1       0.90133    0.67055    0.46532   1.00
C6       0.83072    0.62935    0.48690   1.00
C6       0.86199    0.68874    0.50081   1.00
C3c      0.90637    0.69282    0.51594   1.00
H1       0.92085    0.66099    0.51644   1.00
C3d      0.84400    0.73869    0.49836   1.00
H1       0.81392    0.73725    0.48851   1.00
C3       0.93206    0.74737    0.52925   1.00
H1       0.96273    0.75086    0.53923   1.00
C3       0.87161    0.79288    0.51314   1.00
H1       0.85985    0.82665    0.51223   1.00
C2       0.91370    0.79640    0.52810   1.00
C2       0.48191    0.25460    0.46078   1.00
C3       0.48350    0.22747    0.47850   1.00
H1       0.52304    0.22737    0.48221   1.00
C3       0.42429    0.25592    0.45592   1.00
H1       0.42245    0.27556    0.44373   1.00
C3a      0.42896    0.19975    0.49162   1.00
H1       0.43010    0.18096    0.50405   1.00
C3b      0.36836    0.22885    0.46863   1.00
H1       0.32945    0.23078    0.46532   1.00
C6       0.37065    0.20137    0.48690   1.00
C6       0.31126    0.17325    0.50081   1.00
C3c      0.30718    0.21355    0.51594   1.00
H1       0.33901    0.25986    0.51644   1.00
C3d      0.26131    0.10531    0.49836   1.00
H1       0.26275    0.07666    0.48851   1.00
C3       0.25263    0.18469    0.52925   1.00
H1       0.24914    0.21187    0.53923   1.00
C3       0.20712    0.07873    0.51314   1.00
H1       0.17335    0.03320    0.51223   1.00
C2       0.20360    0.11730    0.52810   1.00
C2       0.74540    0.22731    0.46078   1.00
C3       0.77253    0.25603    0.47850   1.00
H1       0.77263    0.29567    0.48221   1.00
C3       0.74408    0.16837    0.45592   1.00
H1       0.72444    0.14689    0.44373   1.00
C3a      0.80025    0.22921    0.49162   1.00
H1       0.81904    0.24914    0.50405   1.00
C3b      0.77115    0.13951    0.46863   1.00
H1       0.76922    0.09867    0.46532   1.00
C6       0.79863    0.16928    0.48690   1.00
C6       0.82675    0.13801    0.50081   1.00
C3c      0.78645    0.09363    0.51594   1.00
H1       0.74014    0.07915    0.51644   1.00
C3d      0.89469    0.15600    0.49836   1.00
H1       0.92334    0.18608    0.48851   1.00
C3       0.81531    0.06794    0.52925   1.00
H1       0.78813    0.03727    0.53923   1.00
C3       0.92127    0.12839    0.51314   1.00
H1       0.96680    0.14015    0.51223   1.00
C2       0.88270    0.08630    0.52810   1.00
C2       0.51809    0.77269    0.03922   1.00
C3       0.51650    0.74397    0.02150   1.00
H1       0.47696    0.70433    0.01779   1.00
C3       0.57571    0.83163    0.04408   1.00
H1       0.57755    0.85311    0.05627   1.00
C3a      0.57104    0.77079    0.00838   1.00
H1       0.56990    0.75086    -0.00405   1.00
C3b      0.63164    0.86049    0.03137   1.00
H1       0.67055    0.90133    0.03468   1.00
C6       0.62935    0.83072    0.01310   1.00
C6       0.68874    0.86199    0.99919   1.00
C3c      0.69282    0.90637    0.98406   1.00
H1       0.66099    0.92085    0.98356   1.00
C3d      0.73869    0.84400    0.00164   1.00
H1       0.73725    0.81392    0.01149   1.00
C3       0.74737    0.93206    0.97075   1.00
H1       0.75086    0.96273    0.96077   1.00
C3       0.79288    0.87161    0.98686   1.00
H1       0.82665    0.85985    0.98777   1.00
C2       0.79640    0.91370    0.97190   1.00
C2       0.25460    0.48191    0.03922   1.00
C3       0.22747    0.48350    0.02150   1.00
H1       0.22737    0.52304    0.01779   1.00
C3       0.25592    0.42429    0.04408   1.00
H1       0.27556    0.42245    0.05627   1.00
C3a      0.19975    0.42896    0.00838   1.00
H1       0.18096    0.43010    -0.00405   1.00
C3b      0.22885    0.36836    0.03137   1.00
H1       0.23078    0.32945    0.03468   1.00
C6       0.20137    0.37065    0.01310   1.00
C6       0.17325    0.31126    0.99919   1.00
C3c      0.21355    0.30718    0.98406   1.00
H1       0.25986    0.33901    0.98356   1.00
C3d      0.10531    0.26131    0.00164   1.00
H1       0.07666    0.26275    0.01149   1.00
C3       0.18469    0.25263    0.97075   1.00
H1       0.21187    0.24914    0.96077   1.00
C3       0.07873    0.20712    0.98686   1.00
H1       0.03320    0.17335    0.98777   1.00
C2       0.11730    0.20360    0.97190   1.00
C2       0.22731    0.74540    0.03922   1.00
C3       0.25603    0.77253    0.02150   1.00
H1       0.29567    0.77263    0.01779   1.00
C3       0.16837    0.74408    0.04408   1.00
H1       0.14689    0.72444    0.05627   1.00
C3a      0.22921    0.80025    0.00838   1.00
H1       0.24914    0.81904    -0.00405   1.00
C3b      0.13951    0.77115    0.03137   1.00
H1       0.09867    0.76922    0.03468   1.00
C6       0.16928    0.79863    0.01310   1.00
C6       0.13801    0.82675    0.99919   1.00
C3c      0.09363    0.78645    0.98406   1.00
H1       0.07915    0.74014    0.98356   1.00
C3d      0.15600    0.89469    0.00164   1.00
H1       0.18608    0.92334    0.01149   1.00
C3       0.06794    0.81531    0.97075   1.00
H1       0.03727    0.78813    0.96077   1.00
C3       0.12839    0.92127    0.98686   1.00
H1       0.14015    0.96680    0.98777   1.00
C2       0.08630    0.88270    0.97190   1.00
C2       0.22731    0.48191    0.53922   1.00
C3       0.25603    0.48350    0.52150   1.00
H1       0.29567    0.52304    0.51779   1.00
C3       0.16837    0.42429    0.54408   1.00
H1       0.14689    0.42245    0.55627   1.00
C3a      0.22921    0.42896    0.50838   1.00
H1       0.24914    0.43010    0.49595   1.00
C3b      0.13951    0.36836    0.53137   1.00
H1       0.09867    0.32945    0.53468   1.00
C6       0.16928    0.37065    0.51310   1.00
C6       0.13801    0.31126    0.49919   1.00
C3c      0.09363    0.30718    0.48406   1.00
H1       0.07915    0.33901    0.48356   1.00
C3d      0.15600    0.26131    0.50164   1.00
H1       0.18608    0.26275    0.51149   1.00
C3       0.06794    0.25263    0.47075   1.00
H1       0.03727    0.24914    0.46077   1.00
C3       0.12839    0.20712    0.48686   1.00
H1       0.14015    0.17335    0.48777   1.00
C2       0.08630    0.20360    0.47190   1.00
C2       0.51809    0.74540    0.53922   1.00
C3       0.51650    0.77253    0.52150   1.00
H1       0.47696    0.77263    0.51779   1.00
C3       0.57571    0.74408    0.54408   1.00
H1       0.57755    0.72444    0.55627   1.00
C3a      0.57104    0.80025    0.50838   1.00
H1       0.56990    0.81904    0.49595   1.00
C3b      0.63164    0.77115    0.53137   1.00
H1       0.67055    0.76922    0.53468   1.00
C6       0.62935    0.79863    0.51310   1.00
C6       0.68874    0.82675    0.49919   1.00
C3c      0.69282    0.78645    0.48406   1.00
H1       0.66099    0.74014    0.48356   1.00
C3d      0.73869    0.89469    0.50164   1.00
H1       0.73725    0.92334    0.51149   1.00
C3       0.74737    0.81531    0.47075   1.00
H1       0.75086    0.78813    0.46077   1.00
C3       0.79288    0.92127    0.48686   1.00
H1       0.82665    0.96680    0.48777   1.00
C2       0.79640    0.88270    0.47190   1.00
C2       0.25460    0.77269    0.53922   1.00
C3       0.22747    0.74397    0.52150   1.00
H1       0.22737    0.70433    0.51779   1.00
C3       0.25592    0.83163    0.54408   1.00
H1       0.27556    0.85311    0.55627   1.00
C3a      0.19975    0.77079    0.50838   1.00
H1       0.18096    0.75086    0.49595   1.00
C3b      0.22885    0.86049    0.53137   1.00
H1       0.23078    0.90133    0.53468   1.00
C6       0.20137    0.83072    0.51310   1.00
C6       0.17325    0.86199    0.49919   1.00
C3c      0.21355    0.90637    0.48406   1.00
H1       0.25986    0.92085    0.48356   1.00
C3d      0.10531    0.84400    0.50164   1.00
H1       0.07666    0.81392    0.51149   1.00
C3       0.18469    0.93206    0.47075   1.00
H1       0.21187    0.96273    0.46077   1.00
C3       0.07873    0.87161    0.48686   1.00
H1       0.03320    0.85985    0.48777   1.00
C2       0.11730    0.91370    0.47190   1.00
C2       0.48191    0.22731    0.96078   1.00
C3       0.48350    0.25603    0.97850   1.00
H1       0.52304    0.29567    0.98221   1.00
C3       0.42429    0.16837    0.95592   1.00
H1       0.42245    0.14689    0.94373   1.00
C3a      0.42896    0.22921    0.99162   1.00
H1       0.43010    0.24914    1.00405   1.00
C3b      0.36836    0.13951    0.96863   1.00
H1       0.32945    0.09867    0.96532   1.00
C6       0.37065    0.16928    0.98690   1.00
C6       0.31126    0.13801    0.00081   1.00
C3c      0.30718    0.09363    0.01594   1.00
H1       0.33901    0.07915    0.01644   1.00
C3d      0.26131    0.15600    0.99836   1.00
H1       0.26275    0.18608    0.98851   1.00
C3       0.25263    0.06794    0.02925   1.00
H1       0.24914    0.03727    0.03923   1.00
C3       0.20712    0.12839    0.01314   1.00
H1       0.17335    0.14015    0.01223   1.00
C2       0.20360    0.08630    0.02810   1.00
C2       0.74540    0.51809    0.96078   1.00
C3       0.77253    0.51650    0.97850   1.00
H1       0.77263    0.47696    0.98221   1.00
C3       0.74408    0.57571    0.95592   1.00
H1       0.72444    0.57755    0.94373   1.00
C3a      0.80025    0.57104    0.99162   1.00
H1       0.81904    0.56990    1.00405   1.00
C3b      0.77115    0.63164    0.96863   1.00
H1       0.76922    0.67055    0.96532   1.00
C6       0.79863    0.62935    0.98690   1.00
C6       0.82675    0.68874    0.00081   1.00
C3c      0.78645    0.69282    0.01594   1.00
H1       0.74014    0.66099    0.01644   1.00
C3d      0.89469    0.73869    0.99836   1.00
H1       0.92334    0.73725    0.98851   1.00
C3       0.81531    0.74737    0.02925   1.00
H1       0.78813    0.75086    0.03923   1.00
C3       0.92127    0.79288    0.01314   1.00
H1       0.96680    0.82665    0.01223   1.00
C2       0.88270    0.79640    0.02810   1.00
C2       0.77269    0.25460    0.96078   1.00
C3       0.74397    0.22747    0.97850   1.00
H1       0.70433    0.22737    0.98221   1.00
C3       0.83163    0.25592    0.95592   1.00
H1       0.85311    0.27556    0.94373   1.00
C3a      0.77079    0.19975    0.99162   1.00
H1       0.75086    0.18096    1.00405   1.00
C3b      0.86049    0.22885    0.96863   1.00
H1       0.90133    0.23078    0.96532   1.00
C6       0.83072    0.20137    0.98690   1.00
C6       0.86199    0.17325    0.00081   1.00
C3c      0.90637    0.21355    0.01594   1.00
H1       0.92085    0.25986    0.01644   1.00
C3d      0.84400    0.10531    0.99836   1.00
H1       0.81392    0.07666    0.98851   1.00
C3       0.93206    0.18469    0.02925   1.00
H1       0.96273    0.21187    0.03923   1.00
C3       0.87161    0.07873    0.01314   1.00
H1       0.85985    0.03320    0.01223   1.00
C2       0.91370    0.11730    0.02810   1.00
C2       0.43936    0.85142    0.79411   1.00
C3       0.41064    0.84983    0.81183   1.00
H1       0.37100    0.81029    0.81554   1.00
C3       0.49830    0.90904    0.78925   1.00
H1       0.51978    0.91088    0.77706   1.00
C3a      0.43746    0.90437    0.82495   1.00
H1       0.41753    0.90323    0.83738   1.00
C3b      0.52716    0.96497    0.80196   1.00
H1       0.56800    1.00388    0.79865   1.00
C6       0.49739    0.96268    0.82023   1.00
C6       0.52866    0.02207    0.83414   1.00
C3c      0.57304    0.02615    0.84927   1.00
H1       0.58752    -0.00568   0.84977   1.00
C3d      0.51067    0.07202    0.83169   1.00
H1       0.48059    0.07058    0.82184   1.00
C3       0.59873    0.08070    0.86258   1.00
H1       0.62940    0.08419    0.87256   1.00
C3       0.53828    0.12621    0.84647   1.00
H1       0.52652    0.15998    0.84556   1.00
C2       0.58037    0.12973    0.86143   1.00
C2       0.14858    0.58793    0.79411   1.00
C3       0.15017    0.56080    0.81183   1.00
H1       0.18971    0.56070    0.81554   1.00
C3       0.09096    0.58925    0.78925   1.00
H1       0.08912    0.60889    0.77706   1.00
C3a      0.09563    0.53308    0.82495   1.00
H1       0.09677    0.51429    0.83738   1.00
C3b      0.03503    0.56218    0.80196   1.00
H1       -0.00388   0.56411    0.79865   1.00
C6       0.03732    0.53470    0.82023   1.00
C6       0.97793    0.50658    0.83414   1.00
C3c      0.97385    0.54688    0.84927   1.00
H1       1.00568    0.59319    0.84977   1.00
C3d      0.92798    0.43864    0.83169   1.00
H1       0.92942    0.40999    0.82184   1.00
C3       0.91930    0.51802    0.86258   1.00
H1       0.91581    0.54520    0.87256   1.00
C3       0.87379    0.41206    0.84647   1.00
H1       0.84002    0.36653    0.84556   1.00
C2       0.87027    0.45063    0.86143   1.00
C2       0.41207    0.56064    0.79411   1.00
C3       0.43920    0.58936    0.81183   1.00
H1       0.43930    0.62900    0.81554   1.00
C3       0.41075    0.50170    0.78925   1.00
H1       0.39111    0.48022    0.77706   1.00
C3a      0.46692    0.56254    0.82495   1.00
H1       0.48571    0.58247    0.83738   1.00
C3b      0.43782    0.47284    0.80196   1.00
H1       0.43589    0.43200    0.79865   1.00
C6       0.46530    0.50261    0.82023   1.00
C6       0.49342    0.47134    0.83414   1.00
C3c      0.45312    0.42696    0.84927   1.00
H1       0.40681    0.41248    0.84977   1.00
C3d      0.56136    0.48933    0.83169   1.00
H1       0.59001    0.51941    0.82184   1.00
C3       0.48198    0.40127    0.86258   1.00
H1       0.45480    0.37060    0.87256   1.00
C3       0.58794    0.46172    0.84647   1.00
H1       0.63347    0.47348    0.84556   1.00
C2       0.54937    0.41963    0.86143   1.00
C2       0.18476    0.10602    0.37255   1.00
C3       0.18317    0.07730    0.35483   1.00
H1       0.14363    0.03766    0.35112   1.00
C3       0.24238    0.16496    0.37741   1.00
H1       0.24422    0.18644    0.38960   1.00
C3a      0.23771    0.10412    0.34171   1.00
H1       0.23657    0.08419    0.32928   1.00
C3b      0.29831    0.19382    0.36470   1.00
H1       0.33722    0.23466    0.36801   1.00
C6       0.29602    0.16405    0.34643   1.00
C6       0.35541    0.19532    0.33252   1.00
C3c      0.35949    0.23970    0.31739   1.00
H1       0.32766    0.25418    0.31689   1.00
C3d      0.40536    0.17733    0.33497   1.00
H1       0.40392    0.14725    0.34482   1.00
C3       0.41404    0.26539    0.30408   1.00
H1       0.41753    0.29606    0.29410   1.00
C3       0.45955    0.20494    0.32019   1.00
H1       0.49332    0.19318    0.32110   1.00
C2       0.46307    0.24703    0.30523   1.00
C2       0.92127    0.81524    0.37255   1.00
C3       0.89414    0.81683    0.35483   1.00
H1       0.89404    0.85637    0.35112   1.00
C3       0.92259    0.75762    0.37741   1.00
H1       0.94223    0.75578    0.38960   1.00
C3a      0.86642    0.76229    0.34171   1.00
H1       0.84763    0.76343    0.32928   1.00
C3b      0.89552    0.70169    0.36470   1.00
H1       0.89745    0.66278    0.36801   1.00
C6       0.86804    0.70398    0.34643   1.00
C6       0.83992    0.64459    0.33252   1.00
C3c      0.88022    0.64051    0.31739   1.00
H1       0.92653    0.67234    0.31689   1.00
C3d      0.77198    0.59464    0.33497   1.00
H1       0.74333    0.59608    0.34482   1.00
C3       0.85136    0.58596    0.30408   1.00
H1       0.87854    0.58247    0.29410   1.00
C3       0.74540    0.54045    0.32019   1.00
H1       0.69987    0.50668    0.32110   1.00
C2       0.78397    0.53693    0.30523   1.00
C2       0.89398    0.07873    0.37255   1.00
C3       0.92270    0.10586    0.35483   1.00
H1       0.96234    0.10596    0.35112   1.00
C3       0.83504    0.07741    0.37741   1.00
H1       0.81356    0.05777    0.38960   1.00
C3a      0.89588    0.13358    0.34171   1.00
H1       0.91581    0.15237    0.32928   1.00
C3b      0.80618    0.10448    0.36470   1.00
H1       0.76534    0.10255    0.36801   1.00
C6       0.83595    0.13196    0.34643   1.00
C6       0.80468    0.16008    0.33252   1.00
C3c      0.76030    0.11978    0.31739   1.00
H1       0.74582    0.07347    0.31689   1.00
C3d      0.82267    0.22802    0.33497   1.00
H1       0.85275    0.25667    0.34482   1.00
C3       0.73461    0.14864    0.30408   1.00
H1       0.70394    0.12146    0.29410   1.00
C3       0.79506    0.25460    0.32019   1.00
H1       0.80682    0.30013    0.32110   1.00
C2       0.75297    0.21603    0.30523   1.00
C2       0.89398    0.81524    0.87255   1.00
C3       0.92270    0.81683    0.85483   1.00
H1       0.96234    0.85637    0.85112   1.00
C3       0.83504    0.75762    0.87741   1.00
H1       0.81356    0.75578    0.88960   1.00
C3a      0.89588    0.76229    0.84171   1.00
H1       0.91581    0.76343    0.82928   1.00
C3b      0.80618    0.70169    0.86470   1.00
H1       0.76534    0.66278    0.86801   1.00
C6       0.83595    0.70398    0.84643   1.00
C6       0.80468    0.64459    0.83252   1.00
C3c      0.76030    0.64051    0.81739   1.00
H1       0.74582    0.67234    0.81689   1.00
C3d      0.82267    0.59464    0.83497   1.00
H1       0.85275    0.59608    0.84482   1.00
C3       0.73461    0.58596    0.80408   1.00
H1       0.70394    0.58247    0.79410   1.00
C3       0.79506    0.54045    0.82019   1.00
H1       0.80682    0.50668    0.82110   1.00
C2       0.75297    0.53693    0.80523   1.00
C2       0.18476    0.07873    0.87255   1.00
C3       0.18317    0.10586    0.85483   1.00
H1       0.14363    0.10596    0.85112   1.00
C3       0.24238    0.07741    0.87741   1.00
H1       0.24422    0.05777    0.88960   1.00
C3a      0.23771    0.13358    0.84171   1.00
H1       0.23657    0.15237    0.82928   1.00
C3b      0.29831    0.10448    0.86470   1.00
H1       0.33722    0.10255    0.86801   1.00
C6       0.29602    0.13196    0.84643   1.00
C6       0.35541    0.16008    0.83252   1.00
C3c      0.35949    0.11978    0.81739   1.00
H1       0.32766    0.07347    0.81689   1.00
C3d      0.40536    0.22802    0.83497   1.00
H1       0.40392    0.25667    0.84482   1.00
C3       0.41404    0.14864    0.80408   1.00
H1       0.41753    0.12146    0.79410   1.00
C3       0.45955    0.25460    0.82019   1.00
H1       0.49332    0.30013    0.82110   1.00
C2       0.46307    0.21603    0.80523   1.00
C2       0.92127    0.10602    0.87255   1.00
C3       0.89414    0.07730    0.85483   1.00
H1       0.89404    0.03766    0.85112   1.00
C3       0.92259    0.16496    0.87741   1.00
H1       0.94223    0.18644    0.88960   1.00
C3a      0.86642    0.10412    0.84171   1.00
H1       0.84763    0.08419    0.82928   1.00
C3b      0.89552    0.19382    0.86470   1.00
H1       0.89745    0.23466    0.86801   1.00
C6       0.86804    0.16405    0.84643   1.00
C6       0.83992    0.19532    0.83252   1.00
C3c      0.88022    0.23970    0.81739   1.00
H1       0.92653    0.25418    0.81689   1.00
C3d      0.77198    0.17733    0.83497   1.00
H1       0.74333    0.14725    0.84482   1.00
C3       0.85136    0.26539    0.80408   1.00
H1       0.87854    0.29606    0.79410   1.00
C3       0.74540    0.20494    0.82019   1.00
H1       0.69987    0.19318    0.82110   1.00
C2       0.78397    0.24703    0.80523   1.00
C2       0.14858    0.56064    0.29411   1.00
C3       0.15017    0.58936    0.31183   1.00
H1       0.18971    0.62900    0.31554   1.00
C3       0.09096    0.50170    0.28925   1.00
H1       0.08912    0.48022    0.27706   1.00
C3a      0.09563    0.56254    0.32495   1.00
H1       0.09677    0.58247    0.33738   1.00
C3b      0.03503    0.47284    0.30196   1.00
H1       -0.00388   0.43200    0.29865   1.00
C6       0.03732    0.50261    0.32023   1.00
C6       0.97793    0.47134    0.33414   1.00
C3c      0.97385    0.42696    0.34927   1.00
H1       1.00568    0.41248    0.34977   1.00
C3d      0.92798    0.48933    0.33169   1.00
H1       0.92942    0.51941    0.32184   1.00
C3       0.91930    0.40127    0.36258   1.00
H1       0.91581    0.37060    0.37256   1.00
C3       0.87379    0.46172    0.34647   1.00
H1       0.84002    0.47348    0.34556   1.00
C2       0.87027    0.41963    0.36143   1.00
C2       0.41207    0.85142    0.29411   1.00
C3       0.43920    0.84983    0.31183   1.00
H1       0.43930    0.81029    0.31554   1.00
C3       0.41075    0.90904    0.28925   1.00
H1       0.39111    0.91088    0.27706   1.00
C3a      0.46692    0.90437    0.32495   1.00
H1       0.48571    0.90323    0.33738   1.00
C3b      0.43782    0.96497    0.30196   1.00
H1       0.43589    1.00388    0.29865   1.00
C6       0.46530    0.96268    0.32023   1.00
C6       0.49342    0.02207    0.33414   1.00
C3c      0.45312    0.02615    0.34927   1.00
H1       0.40681    -0.00568   0.34977   1.00
C3d      0.56136    0.07202    0.33169   1.00
H1       0.59001    0.07058    0.32184   1.00
C3       0.48198    0.08070    0.36258   1.00
H1       0.45480    0.08419    0.37256   1.00
C3       0.58794    0.12621    0.34647   1.00
H1       0.63347    0.15998    0.34556   1.00
C2       0.54937    0.12973    0.36143   1.00
C2       0.43936    0.58793    0.29411   1.00
C3       0.41064    0.56080    0.31183   1.00
H1       0.37100    0.56070    0.31554   1.00
C3       0.49830    0.58925    0.28925   1.00
H1       0.51978    0.60889    0.27706   1.00
C3a      0.43746    0.53308    0.32495   1.00
H1       0.41753    0.51429    0.33738   1.00
C3b      0.52716    0.56218    0.30196   1.00
H1       0.56800    0.56411    0.29865   1.00
C6       0.49739    0.53470    0.32023   1.00
C6       0.52866    0.50658    0.33414   1.00
C3c      0.57304    0.54688    0.34927   1.00
H1       0.58752    0.59319    0.34977   1.00
C3d      0.51067    0.43864    0.33169   1.00
H1       0.48059    0.40999    0.32184   1.00
C3       0.59873    0.51802    0.36258   1.00
H1       0.62940    0.54520    0.37256   1.00
C3       0.53828    0.41206    0.34647   1.00
H1       0.52652    0.36653    0.34556   1.00
C2       0.58037    0.45063    0.36143   1.00
C2       0.10602    0.18476    0.12745   1.00
C3       0.07730    0.18317    0.14517   1.00
H1       0.03766    0.14363    0.14888   1.00
C3       0.16496    0.24238    0.12259   1.00
H1       0.18644    0.24422    0.11040   1.00
C3a      0.10412    0.23771    0.15829   1.00
H1       0.08419    0.23657    0.17072   1.00
C3b      0.19382    0.29831    0.13530   1.00
H1       0.23466    0.33722    0.13199   1.00
C6       0.16405    0.29602    0.15357   1.00
C6       0.19532    0.35541    0.16748   1.00
C3c      0.23970    0.35949    0.18261   1.00
H1       0.25418    0.32766    0.18311   1.00
C3d      0.17733    0.40536    0.16503   1.00
H1       0.14725    0.40392    0.15518   1.00
C3       0.26539    0.41404    0.19592   1.00
H1       0.29606    0.41753    0.20590   1.00
C3       0.20494    0.45955    0.17981   1.00
H1       0.19318    0.49332    0.17890   1.00
C2       0.24703    0.46307    0.19477   1.00
C2       0.81524    0.92127    0.12745   1.00
C3       0.81683    0.89414    0.14517   1.00
H1       0.85637    0.89404    0.14888   1.00
C3       0.75762    0.92259    0.12259   1.00
H1       0.75578    0.94223    0.11040   1.00
C3a      0.76229    0.86642    0.15829   1.00
H1       0.76343    0.84763    0.17072   1.00
C3b      0.70169    0.89552    0.13530   1.00
H1       0.66278    0.89745    0.13199   1.00
C6       0.70398    0.86804    0.15357   1.00
C6       0.64459    0.83992    0.16748   1.00
C3c      0.64051    0.88022    0.18261   1.00
H1       0.67234    0.92653    0.18311   1.00
C3d      0.59464    0.77198    0.16503   1.00
H1       0.59608    0.74333    0.15518   1.00
C3       0.58596    0.85136    0.19592   1.00
H1       0.58247    0.87854    0.20590   1.00
C3       0.54045    0.74540    0.17981   1.00
H1       0.50668    0.69987    0.17890   1.00
C2       0.53693    0.78397    0.19477   1.00
C2       0.07873    0.89398    0.12745   1.00
C3       0.10586    0.92270    0.14517   1.00
H1       0.10596    0.96234    0.14888   1.00
C3       0.07741    0.83504    0.12259   1.00
H1       0.05777    0.81356    0.11040   1.00
C3a      0.13358    0.89588    0.15829   1.00
H1       0.15237    0.91581    0.17072   1.00
C3b      0.10448    0.80618    0.13530   1.00
H1       0.10255    0.76534    0.13199   1.00
C6       0.13196    0.83595    0.15357   1.00
C6       0.16008    0.80468    0.16748   1.00
C3c      0.11978    0.76030    0.18261   1.00
H1       0.07347    0.74582    0.18311   1.00
C3d      0.22802    0.82267    0.16503   1.00
H1       0.25667    0.85275    0.15518   1.00
C3       0.14864    0.73461    0.19592   1.00
H1       0.12146    0.70394    0.20590   1.00
C3       0.25460    0.79506    0.17981   1.00
H1       0.30013    0.80682    0.17890   1.00
C2       0.21603    0.75297    0.19477   1.00
C2       0.85142    0.43936    0.70589   1.00
C3       0.84983    0.41064    0.68817   1.00
H1       0.81029    0.37100    0.68446   1.00
C3       0.90904    0.49830    0.71075   1.00
H1       0.91088    0.51978    0.72294   1.00
C3a      0.90437    0.43746    0.67505   1.00
H1       0.90323    0.41753    0.66262   1.00
C3b      0.96497    0.52716    0.69804   1.00
H1       1.00388    0.56800    0.70135   1.00
C6       0.96268    0.49739    0.67977   1.00
C6       0.02207    0.52866    0.66586   1.00
C3c      0.02615    0.57304    0.65073   1.00
H1       -0.00568   0.58752    0.65023   1.00
C3d      0.07202    0.51067    0.66831   1.00
H1       0.07058    0.48059    0.67816   1.00
C3       0.08070    0.59873    0.63742   1.00
H1       0.08419    0.62940    0.62744   1.00
C3       0.12621    0.53828    0.65353   1.00
H1       0.15998    0.52652    0.65444   1.00
C2       0.12973    0.58037    0.63857   1.00
C2       0.58793    0.14858    0.70589   1.00
C3       0.56080    0.15017    0.68817   1.00
H1       0.56070    0.18971    0.68446   1.00
C3       0.58925    0.09096    0.71075   1.00
H1       0.60889    0.08912    0.72294   1.00
C3a      0.53308    0.09563    0.67505   1.00
H1       0.51429    0.09677    0.66262   1.00
C3b      0.56218    0.03503    0.69804   1.00
H1       0.56411    -0.00388   0.70135   1.00
C6       0.53470    0.03732    0.67977   1.00
C6       0.50658    0.97793    0.66586   1.00
C3c      0.54688    0.97385    0.65073   1.00
H1       0.59319    1.00568    0.65023   1.00
C3d      0.43864    0.92798    0.66831   1.00
H1       0.40999    0.92942    0.67816   1.00
C3       0.51802    0.91930    0.63742   1.00
H1       0.54520    0.91581    0.62744   1.00
C3       0.41206    0.87379    0.65353   1.00
H1       0.36653    0.84002    0.65444   1.00
C2       0.45063    0.87027    0.63857   1.00
C2       0.56064    0.41207    0.70589   1.00
C3       0.58936    0.43920    0.68817   1.00
H1       0.62900    0.43930    0.68446   1.00
C3       0.50170    0.41075    0.71075   1.00
H1       0.48022    0.39111    0.72294   1.00
C3a      0.56254    0.46692    0.67505   1.00
H1       0.58247    0.48571    0.66262   1.00
C3b      0.47284    0.43782    0.69804   1.00
H1       0.43200    0.43589    0.70135   1.00
C6       0.50261    0.46530    0.67977   1.00
C6       0.47134    0.49342    0.66586   1.00
C3c      0.42696    0.45312    0.65073   1.00
H1       0.41248    0.40681    0.65023   1.00
C3d      0.48933    0.56136    0.66831   1.00
H1       0.51941    0.59001    0.67816   1.00
C3       0.40127    0.48198    0.63742   1.00
H1       0.37060    0.45480    0.62744   1.00
C3       0.46172    0.58794    0.65353   1.00
H1       0.47348    0.63347    0.65444   1.00
C2       0.41963    0.54937    0.63857   1.00
C2       0.56064    0.14858    0.20589   1.00
C3       0.58936    0.15017    0.18817   1.00
H1       0.62900    0.18971    0.18446   1.00
C3       0.50170    0.09096    0.21075   1.00
H1       0.48022    0.08912    0.22294   1.00
C3a      0.56254    0.09563    0.17505   1.00
H1       0.58247    0.09677    0.16262   1.00
C3b      0.47284    0.03503    0.19804   1.00
H1       0.43200    -0.00388   0.20135   1.00
C6       0.50261    0.03732    0.17977   1.00
C6       0.47134    0.97793    0.16586   1.00
C3c      0.42696    0.97385    0.15073   1.00
H1       0.41248    1.00568    0.15023   1.00
C3d      0.48933    0.92798    0.16831   1.00
H1       0.51941    0.92942    0.17816   1.00
C3       0.40127    0.91930    0.13742   1.00
H1       0.37060    0.91581    0.12744   1.00
C3       0.46172    0.87379    0.15353   1.00
H1       0.47348    0.84002    0.15444   1.00
C2       0.41963    0.87027    0.13857   1.00
C2       0.85142    0.41207    0.20589   1.00
C3       0.84983    0.43920    0.18817   1.00
H1       0.81029    0.43930    0.18446   1.00
C3       0.90904    0.41075    0.21075   1.00
H1       0.91088    0.39111    0.22294   1.00
C3a      0.90437    0.46692    0.17505   1.00
H1       0.90323    0.48571    0.16262   1.00
C3b      0.96497    0.43782    0.19804   1.00
H1       1.00388    0.43589    0.20135   1.00
C6       0.96268    0.46530    0.17977   1.00
C6       0.02207    0.49342    0.16586   1.00
C3c      0.02615    0.45312    0.15073   1.00
H1       -0.00568   0.40681    0.15023   1.00
C3d      0.07202    0.56136    0.16831   1.00
H1       0.07058    0.59001    0.17816   1.00
C3       0.08070    0.48198    0.13742   1.00
H1       0.08419    0.45480    0.12744   1.00
C3       0.12621    0.58794    0.15353   1.00
H1       0.15998    0.63347    0.15444   1.00
C2       0.12973    0.54937    0.13857   1.00
C2       0.58793    0.43936    0.20589   1.00
C3       0.56080    0.41064    0.18817   1.00
H1       0.56070    0.37100    0.18446   1.00
C3       0.58925    0.49830    0.21075   1.00
H1       0.60889    0.51978    0.22294   1.00
C3a      0.53308    0.43746    0.17505   1.00
H1       0.51429    0.41753    0.16262   1.00
C3b      0.56218    0.52716    0.19804   1.00
H1       0.56411    0.56800    0.20135   1.00
C6       0.53470    0.49739    0.17977   1.00
C6       0.50658    0.52866    0.16586   1.00
C3c      0.54688    0.57304    0.15073   1.00
H1       0.59319    0.58752    0.15023   1.00
C3d      0.43864    0.51067    0.16831   1.00
H1       0.40999    0.48059    0.17816   1.00
C3       0.51802    0.59873    0.13742   1.00
H1       0.54520    0.62940    0.12744   1.00
C3       0.41206    0.53828    0.15353   1.00
H1       0.36653    0.52652    0.15444   1.00
C2       0.45063    0.58037    0.13857   1.00
C2       0.81524    0.89398    0.62745   1.00
C3       0.81683    0.92270    0.64517   1.00
H1       0.85637    0.96234    0.64888   1.00
C3       0.75762    0.83504    0.62259   1.00
H1       0.75578    0.81356    0.61040   1.00
C3a      0.76229    0.89588    0.65829   1.00
H1       0.76343    0.91581    0.67072   1.00
C3b      0.70169    0.80618    0.63530   1.00
H1       0.66278    0.76534    0.63199   1.00
C6       0.70398    0.83595    0.65357   1.00
C6       0.64459    0.80468    0.66748   1.00
C3c      0.64051    0.76030    0.68261   1.00
H1       0.67234    0.74582    0.68311   1.00
C3d      0.59464    0.82267    0.66503   1.00
H1       0.59608    0.85275    0.65518   1.00
C3       0.58596    0.73461    0.69592   1.00
H1       0.58247    0.70394    0.70590   1.00
C3       0.54045    0.79506    0.67981   1.00
H1       0.50668    0.80682    0.67890   1.00
C2       0.53693    0.75297    0.69477   1.00
C2       0.07873    0.18476    0.62745   1.00
C3       0.10586    0.18317    0.64517   1.00
H1       0.10596    0.14363    0.64888   1.00
C3       0.07741    0.24238    0.62259   1.00
H1       0.05777    0.24422    0.61040   1.00
C3a      0.13358    0.23771    0.65829   1.00
H1       0.15237    0.23657    0.67072   1.00
C3b      0.10448    0.29831    0.63530   1.00
H1       0.10255    0.33722    0.63199   1.00
C6       0.13196    0.29602    0.65357   1.00
C6       0.16008    0.35541    0.66748   1.00
C3c      0.11978    0.35949    0.68261   1.00
H1       0.07347    0.32766    0.68311   1.00
C3d      0.22802    0.40536    0.66503   1.00
H1       0.25667    0.40392    0.65518   1.00
C3       0.14864    0.41404    0.69592   1.00
H1       0.12146    0.41753    0.70590   1.00
C3       0.25460    0.45955    0.67981   1.00
H1       0.30013    0.49332    0.67890   1.00
C2       0.21603    0.46307    0.69477   1.00
C2       0.10602    0.92127    0.62745   1.00
C3       0.07730    0.89414    0.64517   1.00
H1       0.03766    0.89404    0.64888   1.00
C3       0.16496    0.92259    0.62259   1.00
H1       0.18644    0.94223    0.61040   1.00
C3a      0.10412    0.86642    0.65829   1.00
H1       0.08419    0.84763    0.67072   1.00
C3b      0.19382    0.89552    0.63530   1.00
H1       0.23466    0.89745    0.63199   1.00
C6       0.16405    0.86804    0.65357   1.00
C6       0.19532    0.83992    0.66748   1.00
C3c      0.23970    0.88022    0.68261   1.00
H1       0.25418    0.92653    0.68311   1.00
C3d      0.17733    0.77198    0.66503   1.00
H1       0.14725    0.74333    0.65518   1.00
C3       0.26539    0.85136    0.69592   1.00
H1       0.29606    0.87854    0.70590   1.00
C3       0.20494    0.74540    0.67981   1.00
H1       0.19318    0.69987    0.67890   1.00
C2       0.24703    0.78397    0.69477   1.00
