data_cif
_audit_creation_method 'generated by iGOR'
_symmetry_space_group_name_H-M     'P 1'
_symmetry_Int_Tables_number        1
_symmetry_cell_setting             triclinic
_cell_length_a                     22.6273003
_cell_length_b                     22.6273003
_cell_length_c                     18.7943001
_cell_angle_alpha                  90.0000000
_cell_angle_beta                   90.0000000
_cell_angle_gamma                 120.0000000
loop_
_atom_site_label
_atom_site_fract_x
_atom_site_fract_y
_atom_site_fract_z
 Zn   7.93500021E-02  0.414110005      0.375000000    
 Zn   7.93500021E-02  0.414110005      0.875000000    
 Zn  0.918139994      0.584129989      0.125000000    
 Zn  0.918139994      0.584129989      0.625000000    
 Zn  0.583760023      0.664740026      0.375000000    
 Zn  0.583760023      0.664740026      0.875000000    
 Zn  0.333130002      0.918519974      0.375000000    
 Zn  0.333130002      0.918519974      0.875000000    
 Zn  0.664359987       7.97199979E-02  0.125000000    
 Zn  0.664359987       7.97199979E-02  0.625000000    
 Zn  0.413740009      0.333510011      0.125000000    
 Zn  0.413740009      0.333510011      0.625000000    
 Zn  0.664359987      0.584129989      0.125000000    
 Zn  0.664359987      0.584129989      0.625000000    
 Zn  0.918139994      0.333510011      0.125000000    
 Zn  0.918139994      0.333510011      0.625000000    
 Zn  0.413740009       7.97199979E-02  0.125000000    
 Zn  0.413740009       7.97199979E-02  0.625000000    
 Zn  0.583760023      0.918519974      0.375000000    
 Zn  0.583760023      0.918519974      0.875000000    
 Zn   7.93500021E-02  0.664740026      0.375000000    
 Zn   7.93500021E-02  0.664740026      0.875000000    
 Zn  0.333130002      0.414110005      0.375000000    
 Zn  0.333130002      0.414110005      0.875000000    
 C1  0.987259984      0.379649997      0.258049995    
 N1  0.947660029      0.327410012      0.213259995    
 N1   1.20999999E-02  0.359629989      0.313190013    
 C2  0.947470009      0.271109998      0.241750002    
 C2  0.986720026      0.290730000      0.302619994    
 H1  0.997860014      0.431589991      0.250620008    
 H2  0.998290002      0.260650009      0.338939995    
 H2  0.919579983      0.221290007      0.216869995    
 C1  0.987259984      0.379649997      0.758050025    
 N1  0.947660029      0.327410012      0.713259995    
 N1   1.20999999E-02  0.359629989      0.813189983    
 C2  0.947470009      0.271109998      0.741750002    
 C2  0.986720026      0.290730000      0.802619994    
 H1  0.997860014      0.431589991      0.750620008    
 H2  0.998290002      0.260650009      0.838940024    
 H2  0.919579983      0.221290007      0.716870010    
 C1   2.43999995E-03  0.617799997       2.58999993E-03
 N1   4.98300008E-02  0.670830011      0.963259995    
 N1  0.985390007      0.638610005       6.31899983E-02
 C2   6.35299981E-02  0.728519976       1.23000005E-03
 C2   2.42800005E-02  0.708890021       6.21000007E-02
 H1  0.980620027      0.564710021      0.987299979    
 H2   2.13300008E-02  0.739859998      0.104460001    
 H2  0.100040004      0.779219985      0.982389987    
 C1  0.995679975      0.619520009      0.497850001    
 N1   4.98300008E-02  0.670830011      0.463259995    
 N1  0.985390007      0.638610005      0.563189983    
 C2   7.52400011E-02  0.725539982      0.509440005    
 C2   3.59899998E-02  0.705910027      0.570309997    
 H1  0.964150012      0.568899989      0.475749999    
 H2   4.05200012E-02  0.734979987      0.617910028    
 H2  0.119230002      0.774339974      0.495840013    
 C1  0.619140029      0.622579992      0.247850001    
 N1  0.670459986      0.619740009      0.213259995    
 N1  0.638239980      0.651970029      0.313190013    
 C2  0.725170016      0.649049997      0.259429991    
 C2  0.705540001      0.668669999      0.320300013    
 H1  0.568520010      0.603489995      0.225749999    
 H2  0.734610021      0.693220019      0.367900014    
 H2  0.773970008      0.653859973      0.245829999    
 C1  0.619140029      0.622579992      0.747850001    
 N1  0.670459986      0.619740009      0.713259995    
 N1  0.638239980      0.651970029      0.813189983    
 C2  0.725170016      0.649049997      0.759429991    
 C2  0.705540001      0.668669999      0.820299983    
 H1  0.568520010      0.603489995      0.725750029    
 H2  0.734610021      0.693220019      0.867900014    
 H2  0.773970008      0.653859973      0.745829999    
 C1  0.395799994       1.88999996E-02  0.263870001    
 N1  0.378129989       5.02099991E-02  0.213259995    
 N1  0.345899999      0.985769987      0.313190013    
 C2  0.313290000       3.60199995E-02  0.231670007    
 C2  0.293660015      0.996779978      0.292540014    
 H1  0.444370002       2.02200003E-02  0.264800012    
 H2  0.246439993      0.976029992      0.322430015    
 H2  0.285800010       5.47400005E-02  0.200360000    
 C1  0.375290006      0.996060014      0.747850001    
 N1  0.378129989       5.02099991E-02  0.713259995    
 N1  0.345899999      0.985769987      0.813189983    
 C2  0.348830014       7.56200030E-02  0.759429991    
 C2  0.329200000       3.63700017E-02  0.820299983    
 H1  0.394369990      0.964519978      0.725750029    
 H2  0.304650009       4.08900008E-02  0.867900014    
 H2  0.344009995      0.119599998      0.745829999    
 C1  0.622210026       2.18000007E-03  0.997850001    
 N1  0.619369984      0.948029995      0.963259995    
 N1  0.651589990       1.24700004E-02   6.31899983E-02
 C2  0.648660004      0.922619998       9.42999963E-03
 C2  0.668290019      0.961870015       7.02999979E-02
 H1  0.603129983       3.37200016E-02  0.975750029    
 H2  0.692830026      0.957340002      0.117909998    
 H2  0.653469980      0.878629982      0.995840013    
 C1  0.606729984      0.987630010      0.508050025    
 N1  0.619369984      0.948029995      0.463259995    
 N1  0.651589990       1.24700004E-02  0.563189983    
 C2  0.675480008      0.947830021      0.491759986    
 C2  0.695100009      0.987079978      0.552630007    
 H1  0.565410018      0.998250008      0.500609994    
 H2  0.736750007      0.998650014      0.588949978    
 H2  0.697399974      0.919939995      0.466879994    
 C1  0.360069990      0.347380012      0.990840018    
 N1  0.327039987      0.378500015      0.963259995    
 N1  0.359259993      0.346280009       6.31899983E-02
 C2  0.304019988      0.398220003       2.15799995E-02
 C2  0.323639989      0.378600001       8.24500024E-02
 H1  0.384389997      0.325800002      0.958660007    
 H2  0.314799994      0.385329992      0.137810007    
 H2  0.275440007      0.424690008       1.57399997E-02
 C1  0.379280001      0.391140014      0.508050025    
 N1  0.327039987      0.378500015      0.463259995    
 N1  0.359259993      0.346280009      0.563189983    
 C2  0.270729989      0.322400004      0.491759986    
 C2  0.290360004      0.302769989      0.552630007    
 H1  0.431210011      0.432460010      0.500609994    
 H2  0.260280013      0.261119992      0.588949978    
 H2  0.220919997      0.300469995      0.466890007    
 C1  0.987259984      0.607110023      0.258049995    
 N1   1.20999999E-02  0.651970029      0.313190013    
 N1  0.947660029      0.619740009      0.213259995    
 C2  0.986720026      0.695479989      0.302619994    
 C2  0.947470009      0.675859988      0.241750002    
 H1  0.997860014      0.565779984      0.250620008    
 H2  0.919579983      0.697780013      0.216869995    
 H2  0.998290002      0.737140000      0.338939995    
 C1  0.987259984      0.607110023      0.758050025    
 N1   1.20999999E-02  0.651970029      0.813189983    
 N1  0.947660029      0.619740009      0.713259995    
 C2  0.986720026      0.695479989      0.802619994    
 C2  0.947470009      0.675859988      0.741750002    
 H1  0.997860014      0.565779984      0.750620008    
 H2  0.919579983      0.697780013      0.716870010    
 H2  0.998290002      0.737140000      0.838940024    
 C1   1.02300001E-02  0.391140014       8.05000030E-03
 N1  0.985390007      0.346280009       6.31899983E-02
 N1   4.98300008E-02  0.378500015      0.963259995    
 C2   1.07800001E-02  0.302769989       5.26299998E-02
 C2   5.00300005E-02  0.322389990      0.991760015    
 H1  0.999620020      0.432460010       6.09999988E-04
 H2   7.79199973E-02  0.300469995      0.966880023    
 H2  0.999210000      0.261110008       8.89500007E-02
 C1  0.995679975      0.375660002      0.497850001    
 N1  0.985390007      0.346280009      0.563189983    
 N1   4.98300008E-02  0.378500015      0.463259995    
 C2   3.59899998E-02  0.329580009      0.570309997    
 C2   7.52400011E-02  0.349200010      0.509440005    
 H1  0.964150012      0.394749999      0.475749999    
 H2  0.119230002      0.344390005      0.495840013    
 H2   4.05200012E-02  0.305040002      0.617910028    
 C1  0.390760005      0.379649997      0.258049995    
 N1  0.345899999      0.359629989      0.313190013    
 N1  0.378129989      0.327410012      0.213259995    
 C2  0.302390009      0.290730000      0.302619994    
 C2  0.322010010      0.271109998      0.241750002    
 H1  0.432090014      0.431589991      0.250620008    
 H2  0.300089985      0.221290007      0.216869995    
 H2  0.260729998      0.260650009      0.338939995    
 C1  0.390760005      0.379649997      0.758050025    
 N1  0.345899999      0.359629989      0.813189983    
 N1  0.378129989      0.327410012      0.713259995    
 C2  0.302390009      0.290730000      0.802619994    
 C2  0.322010010      0.271109998      0.741750002    
 H1  0.432090014      0.431589991      0.750620008    
 H2  0.300089985      0.221290007      0.716870010    
 H2  0.260729998      0.260650009      0.838940024    
 C1  0.618219972       1.06100002E-02  0.258049995    
 N1  0.638239980      0.985769987      0.313190013    
 N1  0.670459986       5.02099991E-02  0.213259995    
 C2  0.707140028       1.11600002E-02  0.302630007    
 C2  0.726760030       5.04099987E-02  0.241760001    
 H1  0.566280007      0.999989986      0.250609994    
 H2  0.776579976       7.82999992E-02  0.216879994    
 H2  0.737219989      0.999589980      0.338950008    
 C1  0.619140029      0.996060014      0.747850001    
 N1  0.638239980      0.985769987      0.813189983    
 N1  0.670459986       5.02099991E-02  0.713259995    
 C2  0.705540001       3.63700017E-02  0.820299983    
 C2  0.725160003       7.56200030E-02  0.759429991    
 H1  0.568530023      0.964519978      0.725750029    
 H2  0.773959994      0.119609997      0.745840013    
 H2  0.734610021       4.08999994E-02  0.867910028    
 C1  0.378349990       2.18000007E-03  0.997850001    
 N1  0.359259993       1.24700004E-02   6.31899983E-02
 N1  0.327039987      0.948029995      0.963259995    
 C2  0.291949987      0.961870015       7.02999979E-02
 C2  0.272329986      0.922630012       9.42999963E-03
 H1  0.428970009       3.37099992E-02  0.975750029    
 H2  0.223529994      0.878639996      0.995829999    
 H2  0.262890011      0.957350016      0.117909998    
 C1  0.380070001      0.995419979      0.502590001    
 N1  0.359259993       1.24700004E-02  0.563189983    
 N1  0.327039987      0.948029995      0.463259995    
 C2  0.288980007      0.973590016      0.562089980    
 C2  0.269349992      0.934340000      0.501219988    
 H1  0.433160007       1.72400009E-02  0.487300009    
 H2  0.218649998      0.897830009      0.482389987    
 H2  0.258010000      0.976540029      0.604460001    
 C1  0.641229987      0.629869998      0.991770029    
 N1  0.651589990      0.638610005       6.31899983E-02
 N1  0.619369984      0.670830011      0.963259995    
 C2  0.635309994      0.687969983       8.08399990E-02
 C2  0.615689993      0.707599998       1.99699998E-02
 H1  0.649510026      0.594139993      0.960919976    
 H2  0.599460006      0.744949996       1.31000001E-02
 H2  0.638809979      0.705590010      0.135169998    
 C1  0.622210026      0.619520009      0.497850001    
 N1  0.651589990      0.638610005      0.563189983    
 N1  0.619369984      0.670830011      0.463259995    
 C2  0.668290019      0.705910027      0.570309997    
 C2  0.648670018      0.725539982      0.509440005    
 H1  0.603120029      0.568899989      0.475749999    
 H2  0.653479993      0.774339974      0.495840013    
 H2  0.692830026      0.734979987      0.617910028    
 C1  0.207640007      0.416909993      0.379790008    
 N1  0.247630000      0.396869987      0.345519990    
 N1  0.147609994      0.396869987      0.345519990    
 C2  0.210710004      0.362129986      0.286139995    
 C2  0.149790004      0.362129986      0.286139995    
 H1  0.222049996      0.445730001      0.429049999    
 H2  0.108080000      0.339969993      0.248249993    
 H2  0.230260000      0.339969993      0.248249993    
 C1  0.207640007      0.416909993      0.879790008    
 N1  0.247630000      0.396869987      0.845520020    
 N1  0.147609994      0.396869987      0.845520020    
 C2  0.210710004      0.362129986      0.786140025    
 C2  0.149790004      0.362129986      0.786140025    
 H1  0.222049996      0.445730001      0.929050028    
 H2  0.108080000      0.339969993      0.748250008    
 H2  0.230260000      0.339969993      0.748250008    
 C1  0.785939991      0.573509991      0.123209998    
 N1  0.749859989      0.601379991       9.55300033E-02
 N1  0.849889994      0.601379991       9.55300033E-02
 C2  0.793569982      0.649680018       4.75599989E-02
 C2  0.854489982      0.649680018       4.75599989E-02
 H1  0.765900016      0.533429980      0.163010001    
 H2  0.900529981      0.680509984       1.69399995E-02
 H2  0.778349996      0.680509984       1.69399995E-02
 C1  0.785939991      0.573509991      0.623210013    
 N1  0.749859989      0.601379991      0.595529974    
 N1  0.849889994      0.601379991      0.595529974    
 C2  0.793569982      0.649680018      0.547559977    
 C2  0.854489982      0.649680018      0.547559977    
 H1  0.765900016      0.533429980      0.663010001    
 H2  0.900529981      0.680509984      0.516939998    
 H2  0.778349996      0.680509984      0.516939998    
 C1  0.580959976      0.790229976      0.379790008    
 N1  0.601000011      0.850260019      0.345519990    
 N1  0.601000011      0.750240028      0.345519990    
 C2  0.635739982      0.848079979      0.286139995    
 C2  0.635739982      0.787159979      0.286139995    
 H1  0.552139997      0.775820017      0.429049999    
 H2  0.657899976      0.767610013      0.248249993    
 H2  0.657899976      0.889789999      0.248249993    
 C1  0.563589990      0.781549990      0.854969978    
 N1  0.601000011      0.850260019      0.845520020    
 N1  0.601000011      0.750240028      0.845520020    
 C2  0.665830016      0.863129973      0.829140007    
 C2  0.665830016      0.802209973      0.829140007    
 H1  0.509800017      0.754649997      0.868570030    
 H2  0.707210004      0.792270005      0.818690002    
 H2  0.707210004      0.914439976      0.818690002    
 C1  0.207640007      0.790229976      0.379790008    
 N1  0.147609994      0.750240028      0.345519990    
 N1  0.247630000      0.850260019      0.345519990    
 C2  0.149790004      0.787159979      0.286139995    
 C2  0.210710004      0.848079979      0.286139995    
 H1  0.222049996      0.775820017      0.429049999    
 H2  0.230260000      0.889789999      0.248249993    
 H2  0.108080000      0.767610013      0.248249993    
 C1  0.203050002      0.794820011      0.884029984    
 N1  0.147609994      0.750240028      0.845520020    
 N1  0.247630000      0.850260019      0.845520020    
 C2  0.157749996      0.779190004      0.778789997    
 C2  0.218679994      0.840120018      0.778789997    
 H1  0.210850000      0.787020028      0.939390004    
 H2  0.243300006      0.876749992      0.736209989    
 H2  0.121119998      0.754570007      0.736209989    
 C1  0.794439971      0.203419998      0.134029999    
 N1  0.849879980      0.247999996       9.55199972E-02
 N1  0.749859989      0.147980005       9.55199972E-02
 C2  0.839739978      0.219050005       2.87999995E-02
 C2  0.778819978      0.158120006       2.87999995E-02
 H1  0.786639988      0.211229995      0.189390004    
 H2  0.754199982      0.121490002      0.986209989    
 H2  0.876380026      0.243670002      0.986209989    
 C1  0.789849997      0.208020002      0.629790008    
 N1  0.849879980      0.247999996      0.595520020    
 N1  0.749859989      0.147980005      0.595520020    
 C2  0.847710013      0.211080000      0.536149979    
 C2  0.786780000      0.150160000      0.536149979    
 H1  0.775439978      0.222430006      0.679050028    
 H2  0.767239988      0.108450003      0.498259991    
 H2  0.889419973      0.230629995      0.498259991    
 C1  0.430290014      0.214890003      0.114739999    
 N1  0.396490008      0.147980005       9.55300033E-02
 N1  0.396490008      0.247999996       9.55300033E-02
 C2  0.337920010      0.138249993       6.22299984E-02
 C2  0.337920010      0.199169993       6.22299984E-02
 H1  0.478870004      0.239179999      0.142370000    
 H2  0.300550014      0.211109996       4.09700014E-02
 H2  0.300550014       8.89300033E-02   4.09700014E-02
 C1  0.416539997      0.208020002      0.629790008    
 N1  0.396490008      0.147980005      0.595529974    
 N1  0.396490008      0.247999996      0.595529974    
 C2  0.361739993      0.150150001      0.536159992    
 C2  0.361739993      0.211080000      0.536159992    
 H1  0.445369989      0.222430006      0.679040015    
 H2  0.339560002      0.230609998      0.498270005    
 H2  0.339560002      0.108439997      0.498270005    
 C1   7.41000026E-02  0.536800027      0.376230001    
 N1  0.111649998      0.605589986      0.367399991    
 N1  0.111649998      0.505569994      0.367399991    
 C2  0.176730007      0.618570030      0.352090001    
 C2  0.176730007      0.557650030      0.352090001    
 H1   2.01200005E-02  0.509809971      0.388929993    
 H2  0.218250006      0.547789991      0.342330009    
 H2  0.218250006      0.669960022      0.342330009    
 C1   7.41000026E-02  0.536800027      0.876230001    
 N1  0.111649998      0.605589986      0.867399991    
 N1  0.111649998      0.505569994      0.867399991    
 C2  0.176730007      0.618570030      0.852090001    
 C2  0.176730007      0.557650030      0.852090001    
 H1   2.01200005E-02  0.509809971      0.888930023    
 H2  0.218250006      0.547789991      0.842329979    
 H2  0.218250006      0.669960022      0.842329979    
 C1  0.923389971      0.461439997      0.126230001    
 N1  0.885839999      0.392659992      0.117399998    
 N1  0.885839999      0.492680013      0.117399998    
 C2  0.820760012      0.379669994      0.102090001    
 C2  0.820760012      0.440589994      0.102090001    
 H1  0.977370024      0.488440007      0.138940006    
 H2  0.779240012      0.450459987       9.23200026E-02
 H2  0.779240012      0.328280002       9.23200026E-02
 C1  0.923389971      0.461439997      0.626230001    
 N1  0.885839999      0.392659992      0.617399991    
 N1  0.885839999      0.492680013      0.617399991    
 C2  0.820760012      0.379669994      0.602090001    
 C2  0.820760012      0.440589994      0.602090001    
 H1  0.977370024      0.488440007      0.638939977    
 H2  0.779240012      0.450459987      0.592320025    
 H2  0.779240012      0.328280002      0.592320025    
 C1  0.461070001      0.536800027      0.376230001    
 N1  0.392280012      0.505569994      0.367399991    
 N1  0.492300004      0.605589986      0.367399991    
 C2  0.379299998      0.557650030      0.352090001    
 C2  0.440219998      0.618570030      0.352090001    
 H1  0.488059998      0.509809971      0.388929993    
 H2  0.450080007      0.669960022      0.342330009    
 H2  0.327910006      0.547789991      0.342330009    
 C1  0.452569991      0.545300007      0.901329994    
 N1  0.392280012      0.505569994      0.867399991    
 N1  0.492300004      0.605589986      0.867399991    
 C2  0.394019991      0.542930007      0.808600008    
 C2  0.454939991      0.603850007      0.808600008    
 H1  0.467359990      0.530510008      0.950110018    
 H2  0.474200010      0.645850003      0.771080017    
 H2  0.352019995      0.523670018      0.771080017    
 C1  0.461070001      0.923770010      0.376230001    
 N1  0.492300004      0.886219978      0.367399991    
 N1  0.392280012      0.886219978      0.367399991    
 C2  0.440219998      0.821139991      0.352090001    
 C2  0.379299998      0.821139991      0.352090001    
 H1  0.488059998      0.977750003      0.388929993    
 H2  0.327910006      0.779619992      0.342330009    
 H2  0.450080007      0.779619992      0.342330009    
 C1  0.452569991      0.906780005      0.901329994    
 N1  0.492300004      0.886219978      0.867399991    
 N1  0.392280012      0.886219978      0.867399991    
 C2  0.454939991      0.850579977      0.808600008    
 C2  0.394019991      0.850579977      0.808600008    
 H1  0.467359990      0.936339974      0.950110018    
 H2  0.352019995      0.827839971      0.771080017    
 H2  0.474200010      0.827839971      0.771080017    
 C1  0.542150021       8.59099999E-02   8.79099965E-02
 N1  0.505190015      0.112020001      0.117399998    
 N1  0.605210006      0.112020001      0.117399998    
 C2  0.547370017      0.157269999      0.168500006    
 C2  0.608290017      0.157269999      0.168500006    
 H1  0.523379982       4.83700000E-02   4.55100015E-02
 H2  0.653349996      0.186149999      0.201120004    
 H2  0.531180024      0.186149999      0.201120004    
 C1  0.536430001       7.44699985E-02  0.626230001    
 N1  0.505190015      0.112020001      0.617399991    
 N1  0.605210006      0.112020001      0.617399991    
 C2  0.557280004      0.177100003      0.602090001    
 C2  0.618200004      0.177100003      0.602090001    
 H1  0.509429991       2.04900000E-02  0.638930023    
 H2  0.669589996      0.218620002      0.592329979    
 H2  0.547410011      0.218620002      0.592329979    
 C1  0.542140007      0.455729991       8.79099965E-02
 N1  0.605210006      0.492680013      0.117399998    
 N1  0.505190015      0.392659992      0.117399998    
 C2  0.608290017      0.450500011      0.168500006    
 C2  0.547370017      0.389580011      0.168500006    
 H1  0.523370028      0.474500000       4.55100015E-02
 H2  0.531180024      0.344509989      0.201110005    
 H2  0.653360009      0.466690004      0.201110005    
 C1  0.536430001      0.461439997      0.626230001    
 N1  0.605210006      0.492680013      0.617399991    
 N1  0.505190015      0.392659992      0.617399991    
 C2  0.618200004      0.440589994      0.602090001    
 C2  0.557280004      0.379669994      0.602090001    
 H1  0.509429991      0.488440007      0.638939977    
 H2  0.547410011      0.328280002      0.592320025    
 H2  0.669589996      0.450459987      0.592320025    
