data_IRMOF10_SG202_Ligand7_label_k.

_audit_creation_method             'generated by an auxiliary program of Tobunporous'

_symmetry_space_group_name_H-M     'P 1'
_symmetry_Int_Tables_number        1
_symmetry_cell_setting             triclinic

_cell_length_a                    34.2800
_cell_length_b                    34.2800
_cell_length_c                    34.2800
_cell_angle_alpha                 90.0000
_cell_angle_beta                  90.0000
_cell_angle_gamma                 90.0000

loop_
_atom_site_label
_atom_site_fract_x
_atom_site_fract_y
_atom_site_fract_z
_atom_site_occupancy
O1       0.75000    0.75000    0.75000   1.00
Zn1      0.71720    0.78280    0.78280   1.00
Zn1      0.78280    0.71720    0.78280   1.00
Zn1      0.78280    0.78280    0.71720   1.00
Zn1      0.71720    0.71720    0.71720   1.00
O2       0.72650    0.77350    0.83820   1.00
O2       0.72650    0.83820    0.77350   1.00
O2       0.66180    0.77350    0.77350   1.00
O2       0.77350    0.72650    0.83820   1.00
O2       0.83820    0.72650    0.77350   1.00
O2       0.77350    0.66180    0.77350   1.00
O2       0.77350    0.83820    0.72650   1.00
O2       0.83820    0.77350    0.72650   1.00
O2       0.77350    0.77350    0.66180   1.00
O2       0.66180    0.72650    0.72650   1.00
O2       0.72650    0.66180    0.72650   1.00
O2       0.72650    0.72650    0.66180   1.00
C1       0.75000    0.75000    0.85520   1.00
C1       0.75000    0.85520    0.75000   1.00
C1       0.64480    0.75000    0.75000   1.00
C1       0.85520    0.75000    0.75000   1.00
C1       0.75000    0.64480    0.75000   1.00
C1       0.75000    0.75000    0.64480   1.00
O1       0.25000    0.25000    0.75000   1.00
Zn1      0.21720    0.28280    0.78280   1.00
Zn1      0.28280    0.21720    0.78280   1.00
Zn1      0.28280    0.28280    0.71720   1.00
Zn1      0.21720    0.21720    0.71720   1.00
O2       0.22650    0.27350    0.83820   1.00
O2       0.22650    0.33820    0.77350   1.00
O2       0.16180    0.27350    0.77350   1.00
O2       0.27350    0.22650    0.83820   1.00
O2       0.33820    0.22650    0.77350   1.00
O2       0.27350    0.16180    0.77350   1.00
O2       0.27350    0.33820    0.72650   1.00
O2       0.33820    0.27350    0.72650   1.00
O2       0.27350    0.27350    0.66180   1.00
O2       0.16180    0.22650    0.72650   1.00
O2       0.22650    0.16180    0.72650   1.00
O2       0.22650    0.22650    0.66180   1.00
C1       0.25000    0.25000    0.85520   1.00
C1       0.25000    0.35520    0.75000   1.00
C1       0.14480    0.25000    0.75000   1.00
C1       0.35520    0.25000    0.75000   1.00
C1       0.25000    0.14480    0.75000   1.00
C1       0.25000    0.25000    0.64480   1.00
O1       0.25000    0.75000    0.25000   1.00
Zn1      0.21720    0.78280    0.28280   1.00
Zn1      0.28280    0.71720    0.28280   1.00
Zn1      0.28280    0.78280    0.21720   1.00
Zn1      0.21720    0.71720    0.21720   1.00
O2       0.22650    0.77350    0.33820   1.00
O2       0.22650    0.83820    0.27350   1.00
O2       0.16180    0.77350    0.27350   1.00
O2       0.27350    0.72650    0.33820   1.00
O2       0.33820    0.72650    0.27350   1.00
O2       0.27350    0.66180    0.27350   1.00
O2       0.27350    0.83820    0.22650   1.00
O2       0.33820    0.77350    0.22650   1.00
O2       0.27350    0.77350    0.16180   1.00
O2       0.16180    0.72650    0.22650   1.00
O2       0.22650    0.66180    0.22650   1.00
O2       0.22650    0.72650    0.16180   1.00
C1       0.25000    0.75000    0.35520   1.00
C1       0.25000    0.85520    0.25000   1.00
C1       0.14480    0.75000    0.25000   1.00
C1       0.35520    0.75000    0.25000   1.00
C1       0.25000    0.64480    0.25000   1.00
C1       0.25000    0.75000    0.14480   1.00
O1       0.75000    0.25000    0.25000   1.00
Zn1      0.71720    0.28280    0.28280   1.00
Zn1      0.78280    0.21720    0.28280   1.00
Zn1      0.78280    0.28280    0.21720   1.00
Zn1      0.71720    0.21720    0.21720   1.00
O2       0.72650    0.27350    0.33820   1.00
O2       0.72650    0.33820    0.27350   1.00
O2       0.66180    0.27350    0.27350   1.00
O2       0.77350    0.22650    0.33820   1.00
O2       0.83820    0.22650    0.27350   1.00
O2       0.77350    0.16180    0.27350   1.00
O2       0.77350    0.33820    0.22650   1.00
O2       0.83820    0.27350    0.22650   1.00
O2       0.77350    0.27350    0.16180   1.00
O2       0.66180    0.22650    0.22650   1.00
O2       0.72650    0.16180    0.22650   1.00
O2       0.72650    0.22650    0.16180   1.00
C1       0.75000    0.25000    0.35520   1.00
C1       0.75000    0.35520    0.25000   1.00
C1       0.64480    0.25000    0.25000   1.00
C1       0.85520    0.25000    0.25000   1.00
C1       0.75000    0.14480    0.25000   1.00
C1       0.75000    0.25000    0.14480   1.00
O1       0.25000    0.25000    0.25000   1.00
Zn1      0.28280    0.21720    0.21720   1.00
Zn1      0.21720    0.28280    0.21720   1.00
Zn1      0.21720    0.21720    0.28280   1.00
Zn1      0.28280    0.28280    0.28280   1.00
O2       0.27350    0.22650    0.16180   1.00
O2       0.27350    0.16180    0.22650   1.00
O2       0.33820    0.22650    0.22650   1.00
O2       0.22650    0.27350    0.16180   1.00
O2       0.16180    0.27350    0.22650   1.00
O2       0.22650    0.33820    0.22650   1.00
O2       0.22650    0.16180    0.27350   1.00
O2       0.16180    0.22650    0.27350   1.00
O2       0.22650    0.22650    0.33820   1.00
O2       0.33820    0.27350    0.27350   1.00
O2       0.27350    0.33820    0.27350   1.00
O2       0.27350    0.27350    0.33820   1.00
C1       0.25000    0.25000    0.14480   1.00
C1       0.25000    0.14480    0.25000   1.00
C1       0.35520    0.25000    0.25000   1.00
C1       0.14480    0.25000    0.25000   1.00
C1       0.25000    0.35520    0.25000   1.00
C1       0.25000    0.25000    0.35520   1.00
O1       0.75000    0.75000    0.25000   1.00
Zn1      0.78280    0.71720    0.21720   1.00
Zn1      0.71720    0.78280    0.21720   1.00
Zn1      0.71720    0.71720    0.28280   1.00
Zn1      0.78280    0.78280    0.28280   1.00
O2       0.77350    0.72650    0.16180   1.00
O2       0.77350    0.66180    0.22650   1.00
O2       0.83820    0.72650    0.22650   1.00
O2       0.72650    0.77350    0.16180   1.00
O2       0.66180    0.77350    0.22650   1.00
O2       0.72650    0.83820    0.22650   1.00
O2       0.72650    0.66180    0.27350   1.00
O2       0.66180    0.72650    0.27350   1.00
O2       0.72650    0.72650    0.33820   1.00
O2       0.83820    0.77350    0.27350   1.00
O2       0.77350    0.83820    0.27350   1.00
O2       0.77350    0.77350    0.33820   1.00
C1       0.75000    0.75000    0.14480   1.00
C1       0.75000    0.64480    0.25000   1.00
C1       0.85520    0.75000    0.25000   1.00
C1       0.64480    0.75000    0.25000   1.00
C1       0.75000    0.85520    0.25000   1.00
C1       0.75000    0.75000    0.35520   1.00
O1       0.75000    0.25000    0.75000   1.00
Zn1      0.78280    0.21720    0.71720   1.00
Zn1      0.71720    0.28280    0.71720   1.00
Zn1      0.71720    0.21720    0.78280   1.00
Zn1      0.78280    0.28280    0.78280   1.00
O2       0.77350    0.22650    0.66180   1.00
O2       0.77350    0.16180    0.72650   1.00
O2       0.83820    0.22650    0.72650   1.00
O2       0.72650    0.27350    0.66180   1.00
O2       0.66180    0.27350    0.72650   1.00
O2       0.72650    0.33820    0.72650   1.00
O2       0.72650    0.16180    0.77350   1.00
O2       0.66180    0.22650    0.77350   1.00
O2       0.72650    0.22650    0.83820   1.00
O2       0.83820    0.27350    0.77350   1.00
O2       0.77350    0.33820    0.77350   1.00
O2       0.77350    0.27350    0.83820   1.00
C1       0.75000    0.25000    0.64480   1.00
C1       0.75000    0.14480    0.75000   1.00
C1       0.85520    0.25000    0.75000   1.00
C1       0.64480    0.25000    0.75000   1.00
C1       0.75000    0.35520    0.75000   1.00
C1       0.75000    0.25000    0.85520   1.00
O1       0.25000    0.75000    0.75000   1.00
Zn1      0.28280    0.71720    0.71720   1.00
Zn1      0.21720    0.78280    0.71720   1.00
Zn1      0.21720    0.71720    0.78280   1.00
Zn1      0.28280    0.78280    0.78280   1.00
O2       0.27350    0.72650    0.66180   1.00
O2       0.27350    0.66180    0.72650   1.00
O2       0.33820    0.72650    0.72650   1.00
O2       0.22650    0.77350    0.66180   1.00
O2       0.16180    0.77350    0.72650   1.00
O2       0.22650    0.83820    0.72650   1.00
O2       0.22650    0.66180    0.77350   1.00
O2       0.16180    0.72650    0.77350   1.00
O2       0.22650    0.72650    0.83820   1.00
O2       0.33820    0.77350    0.77350   1.00
O2       0.27350    0.83820    0.77350   1.00
O2       0.27350    0.77350    0.83820   1.00
C1       0.25000    0.75000    0.64480   1.00
C1       0.25000    0.64480    0.75000   1.00
C1       0.35520    0.75000    0.75000   1.00
C1       0.14480    0.75000    0.75000   1.00
C1       0.25000    0.85520    0.75000   1.00
C1       0.25000    0.75000    0.85520   1.00
C5       0.86712    0.70145    1.13218   1.00
H2       0.86825    0.73000    1.14745   1.00
H2       0.89157    0.70182    1.11090   1.00
C5       0.87276    0.66828    1.16194   1.00
C5       0.91631    0.66239    1.17123   1.00
H2       0.86060    0.64056    1.15015   1.00
O3       0.73445    0.68091    0.98000   1.00
C4       0.74986    0.75040    1.02100   1.00
C3c      0.78408    0.74340    1.04243   1.00
H1       0.81119    0.73796    1.02725   1.00
C3d      0.71496    0.75797    1.04135   1.00
C3       0.78385    0.74272    1.08354   1.00
O2       0.81919    0.74044    1.10248   1.00
C3       0.71447    0.75658    1.08227   1.00
H1       0.68674    0.76119    1.09657   1.00
C2       0.74872    0.74912    1.10439   1.00
C5       0.69430    0.67175    0.97879   1.00
H2       0.68357    0.66749    0.94838   1.00
H2       0.67650    0.69523    0.99266   1.00
C5       0.68844    0.63383    1.00129   1.00
H2       0.70017    0.63774    1.03137   1.00
H2       0.70605    0.61052    0.98698   1.00
C5       0.64502    0.62238    1.00262   1.00
H2       0.63305    0.61869    0.97268   1.00
H2       0.62762    0.64500    1.01811   1.00
C5       0.64005    0.58343    1.02445   1.00
C5       0.67479    0.80154    1.01105   1.00
C5       0.82816    0.70102    1.11070   1.00
H2       0.69820    0.81145    0.99088   1.00
H2       0.67452    0.82104    1.03712   1.00
H2       0.83073    0.68410    1.08300   1.00
H2       0.80529    0.68653    1.12895   1.00
H2       0.85819    0.67522    1.19030   1.00
H2       0.65174    0.84487    0.94247   1.00
H2       0.63754    0.86880    0.98763   1.00
C2       0.74780    0.74847    0.89605   1.00
C3       0.75764    0.78316    0.91597   1.00
O2       0.75709    0.81852    0.89674   1.00
C3       0.74067    0.71439    0.91826   1.00
H1       0.73407    0.68714    0.90385   1.00
C3a      0.75912    0.78333    0.95713   1.00
H1       0.76450    0.81062    0.97202   1.00
C3b      0.74095    0.71496    0.95922   1.00
C4       0.75014    0.74960    0.97900   1.00
O3       0.67994    0.76209    1.02167   1.00
C5       0.79542    0.83014    0.88720   1.00
H2       0.81384    0.83322    0.91391   1.00
C5       0.79239    0.86953    0.86674   1.00
H2       0.80949    0.80863    0.86726   1.00
H2       0.78857    0.89258    0.88932   1.00
H2       0.76511    0.86924    0.84907   1.00
C5       0.82794    0.87859    0.84082   1.00
H2       0.85514    0.87571    0.85824   1.00
C5       0.82556    0.92039    0.82453   1.00
H2       0.82931    0.85859    0.81507   1.00
C5       0.63564    0.80479    0.99017   1.00
H2       0.61193    0.80144    1.01215   1.00
H2       0.63301    0.77981    0.96952   1.00
C5       0.63154    0.84364    0.96800   1.00
C5       0.58969    0.84795    0.95225   1.00
H2       0.92627    0.68561    1.19286   1.00
C5       0.92244    0.62164    1.18912   1.00
H2       0.93407    0.66498    1.14323   1.00
C5       0.59653    0.57671    1.03337   1.00
H2       0.65145    0.55858    1.00551   1.00
H2       0.65718    0.58442    1.05293   1.00
C5       0.86456    0.93108    0.80497   1.00
H2       0.80106    0.92217    0.80211   1.00
H2       0.81942    0.94163    0.84937   1.00
H2       0.58105    0.82024    0.93602   1.00
H2       0.56876    0.85293    0.97761   1.00
C5       0.58779    0.88297    0.92417   1.00
H2       0.89356    0.61037    1.20116   1.00
H2       0.93357    0.60081    1.16571   1.00
H2       0.94471    0.62358    1.21374   1.00
H2       0.57837    0.60008    1.01820   1.00
H2       0.58745    0.54670    1.02229   1.00
H2       0.59156    0.57838    1.06621   1.00
H2       0.87654    0.90456    0.78889   1.00
H2       0.85968    0.95588    0.78336   1.00
H2       0.88632    0.94074    0.82819   1.00
H2       0.59330    0.87255    0.89307   1.00
H2       0.55771    0.89701    0.92598   1.00
H2       0.61097    0.90526    0.93266   1.00
C5       0.70145    1.13218    0.86712   1.00
H2       0.73000    1.14745    0.86825   1.00
H2       0.70182    1.11090    0.89157   1.00
C5       0.66828    1.16194    0.87276   1.00
C5       0.66239    1.17123    0.91631   1.00
H2       0.64056    1.15015    0.86060   1.00
O3       0.68091    0.98000    0.73445   1.00
C4       0.75040    1.02100    0.74986   1.00
C3c      0.74340    1.04243    0.78408   1.00
H1       0.73796    1.02725    0.81119   1.00
C3d      0.75797    1.04135    0.71496   1.00
C3       0.74272    1.08354    0.78385   1.00
O2       0.74044    1.10248    0.81919   1.00
C3       0.75658    1.08227    0.71447   1.00
H1       0.76119    1.09657    0.68674   1.00
C2       0.74912    1.10439    0.74872   1.00
C5       0.67175    0.97879    0.69430   1.00
H2       0.66749    0.94838    0.68357   1.00
H2       0.69523    0.99266    0.67650   1.00
C5       0.63383    1.00129    0.68844   1.00
H2       0.63774    1.03137    0.70017   1.00
H2       0.61052    0.98698    0.70605   1.00
C5       0.62238    1.00262    0.64502   1.00
H2       0.61869    0.97268    0.63305   1.00
H2       0.64500    1.01811    0.62762   1.00
C5       0.58343    1.02445    0.64005   1.00
C5       0.80154    1.01105    0.67479   1.00
C5       0.70102    1.11070    0.82816   1.00
H2       0.81145    0.99088    0.69820   1.00
H2       0.82104    1.03712    0.67452   1.00
H2       0.68410    1.08300    0.83073   1.00
H2       0.68653    1.12895    0.80529   1.00
H2       0.67522    1.19030    0.85819   1.00
H2       0.84487    0.94247    0.65174   1.00
H2       0.86880    0.98763    0.63754   1.00
C2       0.74847    0.89605    0.74780   1.00
C3       0.78316    0.91597    0.75764   1.00
O2       0.81852    0.89674    0.75709   1.00
C3       0.71439    0.91826    0.74067   1.00
H1       0.68714    0.90385    0.73407   1.00
C3a      0.78333    0.95713    0.75912   1.00
H1       0.81062    0.97202    0.76450   1.00
C3b      0.71496    0.95922    0.74095   1.00
C4       0.74960    0.97900    0.75014   1.00
O3       0.76209    1.02167    0.67994   1.00
C5       0.83014    0.88720    0.79542   1.00
H2       0.83322    0.91391    0.81384   1.00
C5       0.86953    0.86674    0.79239   1.00
H2       0.80863    0.86726    0.80949   1.00
H2       0.89258    0.88932    0.78857   1.00
H2       0.86924    0.84907    0.76511   1.00
C5       0.87859    0.84082    0.82794   1.00
H2       0.87571    0.85824    0.85514   1.00
C5       0.92039    0.82453    0.82556   1.00
H2       0.85859    0.81507    0.82931   1.00
C5       0.80479    0.99017    0.63564   1.00
H2       0.80144    1.01215    0.61193   1.00
H2       0.77981    0.96952    0.63301   1.00
C5       0.84364    0.96800    0.63154   1.00
C5       0.84795    0.95225    0.58969   1.00
H2       0.68561    1.19286    0.92627   1.00
C5       0.62164    1.18912    0.92244   1.00
H2       0.66498    1.14323    0.93407   1.00
C5       0.57671    1.03337    0.59653   1.00
H2       0.55858    1.00551    0.65145   1.00
H2       0.58442    1.05293    0.65718   1.00
C5       0.93108    0.80497    0.86456   1.00
H2       0.92217    0.80211    0.80106   1.00
H2       0.94163    0.84937    0.81942   1.00
H2       0.82024    0.93602    0.58105   1.00
H2       0.85293    0.97761    0.56876   1.00
C5       0.88297    0.92417    0.58779   1.00
H2       0.61037    1.20116    0.89356   1.00
H2       0.60081    1.16571    0.93357   1.00
H2       0.62358    1.21374    0.94471   1.00
H2       0.60008    1.01820    0.57837   1.00
H2       0.54670    1.02229    0.58745   1.00
H2       0.57838    1.06621    0.59156   1.00
H2       0.90456    0.78889    0.87654   1.00
H2       0.95588    0.78336    0.85968   1.00
H2       0.94074    0.82819    0.88632   1.00
H2       0.87255    0.89307    0.59330   1.00
H2       0.89701    0.92598    0.55771   1.00
H2       0.90526    0.93266    0.61097   1.00
C5       0.36782    0.86712    0.79855   1.00
H2       0.35255    0.86825    0.77000   1.00
H2       0.38910    0.89157    0.79818   1.00
C5       0.33806    0.87276    0.83172   1.00
C5       0.32877    0.91631    0.83761   1.00
H2       0.34985    0.86060    0.85944   1.00
O3       0.52000    0.73445    0.81909   1.00
C4       0.47900    0.74986    0.74960   1.00
C3c      0.45757    0.78408    0.75660   1.00
H1       0.47275    0.81119    0.76204   1.00
C3d      0.45865    0.71496    0.74203   1.00
C3       0.41646    0.78385    0.75728   1.00
O2       0.39752    0.81919    0.75956   1.00
C3       0.41773    0.71447    0.74342   1.00
H1       0.40343    0.68674    0.73881   1.00
C2       0.39561    0.74872    0.75088   1.00
C5       0.52121    0.69430    0.82825   1.00
H2       0.55162    0.68357    0.83251   1.00
H2       0.50734    0.67650    0.80477   1.00
C5       0.49871    0.68844    0.86617   1.00
H2       0.46863    0.70017    0.86226   1.00
H2       0.51302    0.70605    0.88948   1.00
C5       0.49738    0.64502    0.87762   1.00
H2       0.52732    0.63305    0.88131   1.00
H2       0.48189    0.62762    0.85500   1.00
C5       0.47555    0.64005    0.91657   1.00
C5       0.48895    0.67479    0.69846   1.00
C5       0.38930    0.82816    0.79898   1.00
H2       0.50912    0.69820    0.68855   1.00
H2       0.46288    0.67452    0.67896   1.00
H2       0.41700    0.83073    0.81590   1.00
H2       0.37105    0.80529    0.81347   1.00
H2       0.30970    0.85819    0.82478   1.00
H2       0.55753    0.65174    0.65513   1.00
H2       0.51237    0.63754    0.63120   1.00
C2       0.60395    0.74780    0.75153   1.00
C3       0.58403    0.75764    0.71684   1.00
O2       0.60326    0.75709    0.68148   1.00
C3       0.58174    0.74067    0.78561   1.00
H1       0.59615    0.73407    0.81286   1.00
C3a      0.54287    0.75912    0.71667   1.00
H1       0.52798    0.76450    0.68938   1.00
C3b      0.54078    0.74095    0.78504   1.00
C4       0.52100    0.75014    0.75040   1.00
O3       0.47833    0.67994    0.73791   1.00
C5       0.61280    0.79542    0.66986   1.00
H2       0.58609    0.81384    0.66678   1.00
C5       0.63326    0.79239    0.63047   1.00
H2       0.63274    0.80949    0.69137   1.00
H2       0.61068    0.78857    0.60742   1.00
H2       0.65093    0.76511    0.63076   1.00
C5       0.65918    0.82794    0.62141   1.00
H2       0.64176    0.85514    0.62429   1.00
C5       0.67547    0.82556    0.57961   1.00
H2       0.68493    0.82931    0.64141   1.00
C5       0.50983    0.63564    0.69521   1.00
H2       0.48785    0.61193    0.69856   1.00
H2       0.53048    0.63301    0.72019   1.00
C5       0.53200    0.63154    0.65636   1.00
C5       0.54775    0.58969    0.65205   1.00
H2       0.30714    0.92627    0.81439   1.00
C5       0.31088    0.92244    0.87836   1.00
H2       0.35677    0.93407    0.83502   1.00
C5       0.46663    0.59653    0.92329   1.00
H2       0.49449    0.65145    0.94142   1.00
H2       0.44707    0.65718    0.91558   1.00
C5       0.69503    0.86456    0.56892   1.00
H2       0.69789    0.80106    0.57783   1.00
H2       0.65063    0.81942    0.55837   1.00
H2       0.56398    0.58105    0.67976   1.00
H2       0.52239    0.56876    0.64707   1.00
C5       0.57583    0.58779    0.61703   1.00
H2       0.29884    0.89356    0.88963   1.00
H2       0.33429    0.93357    0.89919   1.00
H2       0.28626    0.94471    0.87642   1.00
H2       0.48180    0.57837    0.89992   1.00
H2       0.47771    0.58745    0.95330   1.00
H2       0.43379    0.59156    0.92162   1.00
H2       0.71111    0.87654    0.59544   1.00
H2       0.71664    0.85968    0.54412   1.00
H2       0.67181    0.88632    0.55926   1.00
H2       0.60693    0.59330    0.62745   1.00
H2       0.57402    0.55771    0.60299   1.00
H2       0.56734    0.61097    0.59474   1.00
C5       1.13218    0.86712    0.70145   1.00
H2       1.14745    0.86825    0.73000   1.00
H2       1.11090    0.89157    0.70182   1.00
C5       1.16194    0.87276    0.66828   1.00
C5       1.17123    0.91631    0.66239   1.00
H2       1.15015    0.86060    0.64056   1.00
O3       0.98000    0.73445    0.68091   1.00
C4       1.02100    0.74986    0.75040   1.00
C3c      1.04243    0.78408    0.74340   1.00
H1       1.02725    0.81119    0.73796   1.00
C3d      1.04135    0.71496    0.75797   1.00
C3       1.08354    0.78385    0.74272   1.00
O2       1.10248    0.81919    0.74044   1.00
C3       1.08227    0.71447    0.75658   1.00
H1       1.09657    0.68674    0.76119   1.00
C2       1.10439    0.74872    0.74912   1.00
C5       0.97879    0.69430    0.67175   1.00
H2       0.94838    0.68357    0.66749   1.00
H2       0.99266    0.67650    0.69523   1.00
C5       1.00129    0.68844    0.63383   1.00
H2       1.03137    0.70017    0.63774   1.00
H2       0.98698    0.70605    0.61052   1.00
C5       1.00262    0.64502    0.62238   1.00
H2       0.97268    0.63305    0.61869   1.00
H2       1.01811    0.62762    0.64500   1.00
C5       1.02445    0.64005    0.58343   1.00
C5       1.01105    0.67479    0.80154   1.00
C5       1.11070    0.82816    0.70102   1.00
H2       0.99088    0.69820    0.81145   1.00
H2       1.03712    0.67452    0.82104   1.00
H2       1.08300    0.83073    0.68410   1.00
H2       1.12895    0.80529    0.68653   1.00
H2       1.19030    0.85819    0.67522   1.00
H2       0.94247    0.65174    0.84487   1.00
H2       0.98763    0.63754    0.86880   1.00
C2       0.89605    0.74780    0.74847   1.00
C3       0.91597    0.75764    0.78316   1.00
O2       0.89674    0.75709    0.81852   1.00
C3       0.91826    0.74067    0.71439   1.00
H1       0.90385    0.73407    0.68714   1.00
C3a      0.95713    0.75912    0.78333   1.00
H1       0.97202    0.76450    0.81062   1.00
C3b      0.95922    0.74095    0.71496   1.00
C4       0.97900    0.75014    0.74960   1.00
O3       1.02167    0.67994    0.76209   1.00
C5       0.88720    0.79542    0.83014   1.00
H2       0.91391    0.81384    0.83322   1.00
C5       0.86674    0.79239    0.86953   1.00
H2       0.86726    0.80949    0.80863   1.00
H2       0.88932    0.78857    0.89258   1.00
H2       0.84907    0.76511    0.86924   1.00
C5       0.84082    0.82794    0.87859   1.00
H2       0.85824    0.85514    0.87571   1.00
C5       0.82453    0.82556    0.92039   1.00
H2       0.81507    0.82931    0.85859   1.00
C5       0.99017    0.63564    0.80479   1.00
H2       1.01215    0.61193    0.80144   1.00
H2       0.96952    0.63301    0.77981   1.00
C5       0.96800    0.63154    0.84364   1.00
C5       0.95225    0.58969    0.84795   1.00
H2       1.19286    0.92627    0.68561   1.00
C5       1.18912    0.92244    0.62164   1.00
H2       1.14323    0.93407    0.66498   1.00
C5       1.03337    0.59653    0.57671   1.00
H2       1.00551    0.65145    0.55858   1.00
H2       1.05293    0.65718    0.58442   1.00
C5       0.80497    0.86456    0.93108   1.00
H2       0.80211    0.80106    0.92217   1.00
H2       0.84937    0.81942    0.94163   1.00
H2       0.93602    0.58105    0.82024   1.00
H2       0.97761    0.56876    0.85293   1.00
C5       0.92417    0.58779    0.88297   1.00
H2       1.20116    0.89356    0.61037   1.00
H2       1.16571    0.93357    0.60081   1.00
H2       1.21374    0.94471    0.62358   1.00
H2       1.01820    0.57837    0.60008   1.00
H2       1.02229    0.58745    0.54670   1.00
H2       1.06621    0.59156    0.57838   1.00
H2       0.78889    0.87654    0.90456   1.00
H2       0.78336    0.85968    0.95588   1.00
H2       0.82819    0.88632    0.94074   1.00
H2       0.89307    0.59330    0.87255   1.00
H2       0.92598    0.55771    0.89701   1.00
H2       0.93266    0.61097    0.90526   1.00
C5       0.79855    0.36782    0.86712   1.00
H2       0.77000    0.35255    0.86825   1.00
H2       0.79818    0.38910    0.89157   1.00
C5       0.83172    0.33806    0.87276   1.00
C5       0.83761    0.32877    0.91631   1.00
H2       0.85944    0.34985    0.86060   1.00
O3       0.81909    0.52000    0.73445   1.00
C4       0.74960    0.47900    0.74986   1.00
C3c      0.75660    0.45757    0.78408   1.00
H1       0.76204    0.47275    0.81119   1.00
C3d      0.74203    0.45865    0.71496   1.00
C3       0.75728    0.41646    0.78385   1.00
O2       0.75956    0.39752    0.81919   1.00
C3       0.74342    0.41773    0.71447   1.00
H1       0.73881    0.40343    0.68674   1.00
C2       0.75088    0.39561    0.74872   1.00
C5       0.82825    0.52121    0.69430   1.00
H2       0.83251    0.55162    0.68357   1.00
H2       0.80477    0.50734    0.67650   1.00
C5       0.86617    0.49871    0.68844   1.00
H2       0.86226    0.46863    0.70017   1.00
H2       0.88948    0.51302    0.70605   1.00
C5       0.87762    0.49738    0.64502   1.00
H2       0.88131    0.52732    0.63305   1.00
H2       0.85500    0.48189    0.62762   1.00
C5       0.91657    0.47555    0.64005   1.00
C5       0.69846    0.48895    0.67479   1.00
C5       0.79898    0.38930    0.82816   1.00
H2       0.68855    0.50912    0.69820   1.00
H2       0.67896    0.46288    0.67452   1.00
H2       0.81590    0.41700    0.83073   1.00
H2       0.81347    0.37105    0.80529   1.00
H2       0.82478    0.30970    0.85819   1.00
H2       0.65513    0.55753    0.65174   1.00
H2       0.63120    0.51237    0.63754   1.00
C2       0.75153    0.60395    0.74780   1.00
C3       0.71684    0.58403    0.75764   1.00
O2       0.68148    0.60326    0.75709   1.00
C3       0.78561    0.58174    0.74067   1.00
H1       0.81286    0.59615    0.73407   1.00
C3a      0.71667    0.54287    0.75912   1.00
H1       0.68938    0.52798    0.76450   1.00
C3b      0.78504    0.54078    0.74095   1.00
C4       0.75040    0.52100    0.75014   1.00
O3       0.73791    0.47833    0.67994   1.00
C5       0.66986    0.61280    0.79542   1.00
H2       0.66678    0.58609    0.81384   1.00
C5       0.63047    0.63326    0.79239   1.00
H2       0.69137    0.63274    0.80949   1.00
H2       0.60742    0.61068    0.78857   1.00
H2       0.63076    0.65093    0.76511   1.00
C5       0.62141    0.65918    0.82794   1.00
H2       0.62429    0.64176    0.85514   1.00
C5       0.57961    0.67547    0.82556   1.00
H2       0.64141    0.68493    0.82931   1.00
C5       0.69521    0.50983    0.63564   1.00
H2       0.69856    0.48785    0.61193   1.00
H2       0.72019    0.53048    0.63301   1.00
C5       0.65636    0.53200    0.63154   1.00
C5       0.65205    0.54775    0.58969   1.00
H2       0.81439    0.30714    0.92627   1.00
C5       0.87836    0.31088    0.92244   1.00
H2       0.83502    0.35677    0.93407   1.00
C5       0.92329    0.46663    0.59653   1.00
H2       0.94142    0.49449    0.65145   1.00
H2       0.91558    0.44707    0.65718   1.00
C5       0.56892    0.69503    0.86456   1.00
H2       0.57783    0.69789    0.80106   1.00
H2       0.55837    0.65063    0.81942   1.00
H2       0.67976    0.56398    0.58105   1.00
H2       0.64707    0.52239    0.56876   1.00
C5       0.61703    0.57583    0.58779   1.00
H2       0.88963    0.29884    0.89356   1.00
H2       0.89919    0.33429    0.93357   1.00
H2       0.87642    0.28626    0.94471   1.00
H2       0.89992    0.48180    0.57837   1.00
H2       0.95330    0.47771    0.58745   1.00
H2       0.92162    0.43379    0.59156   1.00
H2       0.59544    0.71111    0.87654   1.00
H2       0.54412    0.71664    0.85968   1.00
H2       0.55926    0.67181    0.88632   1.00
H2       0.62745    0.60693    0.59330   1.00
H2       0.60299    0.57402    0.55771   1.00
H2       0.59474    0.56734    0.61097   1.00
C5       0.86712    0.79855    0.36782   1.00
H2       0.86825    0.77000    0.35255   1.00
H2       0.89157    0.79818    0.38910   1.00
C5       0.87276    0.83172    0.33806   1.00
C5       0.91631    0.83761    0.32877   1.00
H2       0.86060    0.85944    0.34985   1.00
O3       0.73445    0.81909    0.52000   1.00
C4       0.74986    0.74960    0.47900   1.00
C3c      0.78408    0.75660    0.45757   1.00
H1       0.81119    0.76204    0.47275   1.00
C3d      0.71496    0.74203    0.45865   1.00
C3       0.78385    0.75728    0.41646   1.00
O2       0.81919    0.75956    0.39752   1.00
C3       0.71447    0.74342    0.41773   1.00
H1       0.68674    0.73881    0.40343   1.00
C2       0.74872    0.75088    0.39561   1.00
C5       0.69430    0.82825    0.52121   1.00
H2       0.68357    0.83251    0.55162   1.00
H2       0.67650    0.80477    0.50734   1.00
C5       0.68844    0.86617    0.49871   1.00
H2       0.70017    0.86226    0.46863   1.00
H2       0.70605    0.88948    0.51302   1.00
C5       0.64502    0.87762    0.49738   1.00
H2       0.63305    0.88131    0.52732   1.00
H2       0.62762    0.85500    0.48189   1.00
C5       0.64005    0.91657    0.47555   1.00
C5       0.67479    0.69846    0.48895   1.00
C5       0.82816    0.79898    0.38930   1.00
H2       0.69820    0.68855    0.50912   1.00
H2       0.67452    0.67896    0.46288   1.00
H2       0.83073    0.81590    0.41700   1.00
H2       0.80529    0.81347    0.37105   1.00
H2       0.85819    0.82478    0.30970   1.00
H2       0.65174    0.65513    0.55753   1.00
H2       0.63754    0.63120    0.51237   1.00
C2       0.74780    0.75153    0.60395   1.00
C3       0.75764    0.71684    0.58403   1.00
O2       0.75709    0.68148    0.60326   1.00
C3       0.74067    0.78561    0.58174   1.00
H1       0.73407    0.81286    0.59615   1.00
C3a      0.75912    0.71667    0.54287   1.00
H1       0.76450    0.68938    0.52798   1.00
C3b      0.74095    0.78504    0.54078   1.00
C4       0.75014    0.75040    0.52100   1.00
O3       0.67994    0.73791    0.47833   1.00
C5       0.79542    0.66986    0.61280   1.00
H2       0.81384    0.66678    0.58609   1.00
C5       0.79239    0.63047    0.63326   1.00
H2       0.80949    0.69137    0.63274   1.00
H2       0.78857    0.60742    0.61068   1.00
H2       0.76511    0.63076    0.65093   1.00
C5       0.82794    0.62141    0.65918   1.00
H2       0.85514    0.62429    0.64176   1.00
C5       0.82556    0.57961    0.67547   1.00
H2       0.82931    0.64141    0.68493   1.00
C5       0.63564    0.69521    0.50983   1.00
H2       0.61193    0.69856    0.48785   1.00
H2       0.63301    0.72019    0.53048   1.00
C5       0.63154    0.65636    0.53200   1.00
C5       0.58969    0.65205    0.54775   1.00
H2       0.92627    0.81439    0.30714   1.00
C5       0.92244    0.87836    0.31088   1.00
H2       0.93407    0.83502    0.35677   1.00
C5       0.59653    0.92329    0.46663   1.00
H2       0.65145    0.94142    0.49449   1.00
H2       0.65718    0.91558    0.44707   1.00
C5       0.86456    0.56892    0.69503   1.00
H2       0.80106    0.57783    0.69789   1.00
H2       0.81942    0.55837    0.65063   1.00
H2       0.58105    0.67976    0.56398   1.00
H2       0.56876    0.64707    0.52239   1.00
C5       0.58779    0.61703    0.57583   1.00
H2       0.89356    0.88963    0.29884   1.00
H2       0.93357    0.89919    0.33429   1.00
H2       0.94471    0.87642    0.28626   1.00
H2       0.57837    0.89992    0.48180   1.00
H2       0.58745    0.95330    0.47771   1.00
H2       0.59156    0.92162    0.43379   1.00
H2       0.87654    0.59544    0.71111   1.00
H2       0.85968    0.54412    0.71664   1.00
H2       0.88632    0.55926    0.67181   1.00
H2       0.59330    0.62745    0.60693   1.00
H2       0.55771    0.60299    0.57402   1.00
H2       0.61097    0.59474    0.56734   1.00
C5       0.36712    0.20145    1.13218   1.00
H2       0.36825    0.23000    1.14745   1.00
H2       0.39157    0.20182    1.11090   1.00
C5       0.37276    0.16828    1.16194   1.00
C5       0.41631    0.16239    1.17123   1.00
H2       0.36060    0.14056    1.15015   1.00
O3       0.23445    0.18091    0.98000   1.00
C4       0.24986    0.25040    1.02100   1.00
C3c      0.28408    0.24340    1.04243   1.00
H1       0.31119    0.23796    1.02725   1.00
C3d      0.21496    0.25797    1.04135   1.00
C3       0.28385    0.24272    1.08354   1.00
O2       0.31919    0.24044    1.10248   1.00
C3       0.21447    0.25658    1.08227   1.00
H1       0.18674    0.26119    1.09657   1.00
C2       0.24872    0.24912    1.10439   1.00
C5       0.19430    0.17175    0.97879   1.00
H2       0.18357    0.16749    0.94838   1.00
H2       0.17650    0.19523    0.99266   1.00
C5       0.18844    0.13383    1.00129   1.00
H2       0.20017    0.13774    1.03137   1.00
H2       0.20605    0.11052    0.98698   1.00
C5       0.14502    0.12238    1.00262   1.00
H2       0.13305    0.11869    0.97268   1.00
H2       0.12762    0.14500    1.01811   1.00
C5       0.14005    0.08343    1.02445   1.00
C5       0.17479    0.30154    1.01105   1.00
C5       0.32816    0.20102    1.11070   1.00
H2       0.19820    0.31145    0.99088   1.00
H2       0.17452    0.32104    1.03712   1.00
H2       0.33073    0.18410    1.08300   1.00
H2       0.30529    0.18653    1.12895   1.00
H2       0.35819    0.17522    1.19030   1.00
H2       0.15174    0.34487    0.94247   1.00
H2       0.13754    0.36880    0.98763   1.00
C2       0.24780    0.24847    0.89605   1.00
C3       0.25764    0.28316    0.91597   1.00
O2       0.25709    0.31852    0.89674   1.00
C3       0.24067    0.21439    0.91826   1.00
H1       0.23407    0.18714    0.90385   1.00
C3a      0.25912    0.28333    0.95713   1.00
H1       0.26450    0.31062    0.97202   1.00
C3b      0.24095    0.21496    0.95922   1.00
C4       0.25014    0.24960    0.97900   1.00
O3       0.17994    0.26209    1.02167   1.00
C5       0.29542    0.33014    0.88720   1.00
H2       0.31384    0.33322    0.91391   1.00
C5       0.29239    0.36953    0.86674   1.00
H2       0.30949    0.30863    0.86726   1.00
H2       0.28857    0.39258    0.88932   1.00
H2       0.26511    0.36924    0.84907   1.00
C5       0.32794    0.37859    0.84082   1.00
H2       0.35514    0.37571    0.85824   1.00
C5       0.32556    0.42039    0.82453   1.00
H2       0.32931    0.35859    0.81507   1.00
C5       0.13564    0.30479    0.99017   1.00
H2       0.11193    0.30144    1.01215   1.00
H2       0.13301    0.27981    0.96952   1.00
C5       0.13154    0.34364    0.96800   1.00
C5       0.08969    0.34795    0.95225   1.00
H2       0.42627    0.18561    1.19286   1.00
C5       0.42244    0.12164    1.18912   1.00
H2       0.43407    0.16498    1.14323   1.00
C5       0.09653    0.07671    1.03337   1.00
H2       0.15145    0.05858    1.00551   1.00
H2       0.15718    0.08442    1.05293   1.00
C5       0.36456    0.43108    0.80497   1.00
H2       0.30106    0.42217    0.80211   1.00
H2       0.31942    0.44163    0.84937   1.00
H2       0.08105    0.32024    0.93602   1.00
H2       0.06876    0.35293    0.97761   1.00
C5       0.08779    0.38297    0.92417   1.00
H2       0.39356    0.11037    1.20116   1.00
H2       0.43357    0.10081    1.16571   1.00
H2       0.44471    0.12358    1.21374   1.00
H2       0.07837    0.10008    1.01820   1.00
H2       0.08745    0.04670    1.02229   1.00
H2       0.09156    0.07838    1.06621   1.00
H2       0.37654    0.40456    0.78889   1.00
H2       0.35968    0.45588    0.78336   1.00
H2       0.38632    0.44074    0.82819   1.00
H2       0.09330    0.37255    0.89307   1.00
H2       0.05771    0.39701    0.92598   1.00
H2       0.11097    0.40526    0.93266   1.00
C5       0.20145    0.63218    0.86712   1.00
H2       0.23000    0.64745    0.86825   1.00
H2       0.20182    0.61090    0.89157   1.00
C5       0.16828    0.66194    0.87276   1.00
C5       0.16239    0.67123    0.91631   1.00
H2       0.14056    0.65015    0.86060   1.00
O3       0.18091    0.48000    0.73445   1.00
C4       0.25040    0.52100    0.74986   1.00
C3c      0.24340    0.54243    0.78408   1.00
H1       0.23796    0.52725    0.81119   1.00
C3d      0.25797    0.54135    0.71496   1.00
C3       0.24272    0.58354    0.78385   1.00
O2       0.24044    0.60248    0.81919   1.00
C3       0.25658    0.58227    0.71447   1.00
H1       0.26119    0.59657    0.68674   1.00
C2       0.24912    0.60439    0.74872   1.00
C5       0.17175    0.47879    0.69430   1.00
H2       0.16749    0.44838    0.68357   1.00
H2       0.19523    0.49266    0.67650   1.00
C5       0.13383    0.50129    0.68844   1.00
H2       0.13774    0.53137    0.70017   1.00
H2       0.11052    0.48698    0.70605   1.00
C5       0.12238    0.50262    0.64502   1.00
H2       0.11869    0.47268    0.63305   1.00
H2       0.14500    0.51811    0.62762   1.00
C5       0.08343    0.52445    0.64005   1.00
C5       0.30154    0.51105    0.67479   1.00
C5       0.20102    0.61070    0.82816   1.00
H2       0.31145    0.49088    0.69820   1.00
H2       0.32104    0.53712    0.67452   1.00
H2       0.18410    0.58300    0.83073   1.00
H2       0.18653    0.62895    0.80529   1.00
H2       0.17522    0.69030    0.85819   1.00
H2       0.34487    0.44247    0.65174   1.00
H2       0.36880    0.48763    0.63754   1.00
C2       0.24847    0.39605    0.74780   1.00
C3       0.28316    0.41597    0.75764   1.00
O2       0.31852    0.39674    0.75709   1.00
C3       0.21439    0.41826    0.74067   1.00
H1       0.18714    0.40385    0.73407   1.00
C3a      0.28333    0.45713    0.75912   1.00
H1       0.31062    0.47202    0.76450   1.00
C3b      0.21496    0.45922    0.74095   1.00
C4       0.24960    0.47900    0.75014   1.00
O3       0.26209    0.52167    0.67994   1.00
C5       0.33014    0.38720    0.79542   1.00
H2       0.33322    0.41391    0.81384   1.00
C5       0.36953    0.36674    0.79239   1.00
H2       0.30863    0.36726    0.80949   1.00
H2       0.39258    0.38932    0.78857   1.00
H2       0.36924    0.34907    0.76511   1.00
C5       0.37859    0.34082    0.82794   1.00
H2       0.37571    0.35824    0.85514   1.00
C5       0.42039    0.32453    0.82556   1.00
H2       0.35859    0.31507    0.82931   1.00
C5       0.30479    0.49017    0.63564   1.00
H2       0.30144    0.51215    0.61193   1.00
H2       0.27981    0.46952    0.63301   1.00
C5       0.34364    0.46800    0.63154   1.00
C5       0.34795    0.45225    0.58969   1.00
H2       0.18561    0.69286    0.92627   1.00
C5       0.12164    0.68912    0.92244   1.00
H2       0.16498    0.64323    0.93407   1.00
C5       0.07671    0.53337    0.59653   1.00
H2       0.05858    0.50551    0.65145   1.00
H2       0.08442    0.55293    0.65718   1.00
C5       0.43108    0.30497    0.86456   1.00
H2       0.42217    0.30211    0.80106   1.00
H2       0.44163    0.34937    0.81942   1.00
H2       0.32024    0.43602    0.58105   1.00
H2       0.35293    0.47761    0.56876   1.00
C5       0.38297    0.42417    0.58779   1.00
H2       0.11037    0.70116    0.89356   1.00
H2       0.10081    0.66571    0.93357   1.00
H2       0.12358    0.71374    0.94471   1.00
H2       0.10008    0.51820    0.57837   1.00
H2       0.04670    0.52229    0.58745   1.00
H2       0.07838    0.56621    0.59156   1.00
H2       0.40456    0.28889    0.87654   1.00
H2       0.45588    0.28336    0.85968   1.00
H2       0.44074    0.32819    0.88632   1.00
H2       0.37255    0.39307    0.59330   1.00
H2       0.39701    0.42598    0.55771   1.00
H2       0.40526    0.43266    0.61097   1.00
C5       -0.13218   0.36712    0.79855   1.00
H2       -0.14745   0.36825    0.77000   1.00
H2       -0.11090   0.39157    0.79818   1.00
C5       -0.16194   0.37276    0.83172   1.00
C5       -0.17123   0.41631    0.83761   1.00
H2       -0.15015   0.36060    0.85944   1.00
O3       0.02000    0.23445    0.81909   1.00
C4       -0.02100   0.24986    0.74960   1.00
C3c      -0.04243   0.28408    0.75660   1.00
H1       -0.02725   0.31119    0.76204   1.00
C3d      -0.04135   0.21496    0.74203   1.00
C3       -0.08354   0.28385    0.75728   1.00
O2       -0.10248   0.31919    0.75956   1.00
C3       -0.08227   0.21447    0.74342   1.00
H1       -0.09657   0.18674    0.73881   1.00
C2       -0.10439   0.24872    0.75088   1.00
C5       0.02121    0.19430    0.82825   1.00
H2       0.05162    0.18357    0.83251   1.00
H2       0.00734    0.17650    0.80477   1.00
C5       -0.00129   0.18844    0.86617   1.00
H2       -0.03137   0.20017    0.86226   1.00
H2       0.01302    0.20605    0.88948   1.00
C5       -0.00262   0.14502    0.87762   1.00
H2       0.02732    0.13305    0.88131   1.00
H2       -0.01811   0.12762    0.85500   1.00
C5       -0.02445   0.14005    0.91657   1.00
C5       -0.01105   0.17479    0.69846   1.00
C5       -0.11070   0.32816    0.79898   1.00
H2       0.00912    0.19820    0.68855   1.00
H2       -0.03712   0.17452    0.67896   1.00
H2       -0.08300   0.33073    0.81590   1.00
H2       -0.12895   0.30529    0.81347   1.00
H2       -0.19030   0.35819    0.82478   1.00
H2       0.05753    0.15174    0.65513   1.00
H2       0.01237    0.13754    0.63120   1.00
C2       0.10395    0.24780    0.75153   1.00
C3       0.08403    0.25764    0.71684   1.00
O2       0.10326    0.25709    0.68148   1.00
C3       0.08174    0.24067    0.78561   1.00
H1       0.09615    0.23407    0.81286   1.00
C3a      0.04287    0.25912    0.71667   1.00
H1       0.02798    0.26450    0.68938   1.00
C3b      0.04078    0.24095    0.78504   1.00
C4       0.02100    0.25014    0.75040   1.00
O3       -0.02167   0.17994    0.73791   1.00
C5       0.11280    0.29542    0.66986   1.00
H2       0.08609    0.31384    0.66678   1.00
C5       0.13326    0.29239    0.63047   1.00
H2       0.13274    0.30949    0.69137   1.00
H2       0.11068    0.28857    0.60742   1.00
H2       0.15093    0.26511    0.63076   1.00
C5       0.15918    0.32794    0.62141   1.00
H2       0.14176    0.35514    0.62429   1.00
C5       0.17547    0.32556    0.57961   1.00
H2       0.18493    0.32931    0.64141   1.00
C5       0.00983    0.13564    0.69521   1.00
H2       -0.01215   0.11193    0.69856   1.00
H2       0.03048    0.13301    0.72019   1.00
C5       0.03200    0.13154    0.65636   1.00
C5       0.04775    0.08969    0.65205   1.00
H2       -0.19286   0.42627    0.81439   1.00
C5       -0.18912   0.42244    0.87836   1.00
H2       -0.14323   0.43407    0.83502   1.00
C5       -0.03337   0.09653    0.92329   1.00
H2       -0.00551   0.15145    0.94142   1.00
H2       -0.05293   0.15718    0.91558   1.00
C5       0.19503    0.36456    0.56892   1.00
H2       0.19789    0.30106    0.57783   1.00
H2       0.15063    0.31942    0.55837   1.00
H2       0.06398    0.08105    0.67976   1.00
H2       0.02239    0.06876    0.64707   1.00
C5       0.07583    0.08779    0.61703   1.00
H2       -0.20116   0.39356    0.88963   1.00
H2       -0.16571   0.43357    0.89919   1.00
H2       -0.21374   0.44471    0.87642   1.00
H2       -0.01820   0.07837    0.89992   1.00
H2       -0.02229   0.08745    0.95330   1.00
H2       -0.06621   0.09156    0.92162   1.00
H2       0.21111    0.37654    0.59544   1.00
H2       0.21664    0.35968    0.54412   1.00
H2       0.17181    0.38632    0.55926   1.00
H2       0.10693    0.09330    0.62745   1.00
H2       0.07402    0.05771    0.60299   1.00
H2       0.06734    0.11097    0.59474   1.00
C5       0.63218    0.36712    0.70145   1.00
H2       0.64745    0.36825    0.73000   1.00
H2       0.61090    0.39157    0.70182   1.00
C5       0.66194    0.37276    0.66828   1.00
C5       0.67123    0.41631    0.66239   1.00
H2       0.65015    0.36060    0.64056   1.00
O3       0.48000    0.23445    0.68091   1.00
C4       0.52100    0.24986    0.75040   1.00
C3c      0.54243    0.28408    0.74340   1.00
H1       0.52725    0.31119    0.73796   1.00
C3d      0.54135    0.21496    0.75797   1.00
C3       0.58354    0.28385    0.74272   1.00
O2       0.60248    0.31919    0.74044   1.00
C3       0.58227    0.21447    0.75658   1.00
H1       0.59657    0.18674    0.76119   1.00
C2       0.60439    0.24872    0.74912   1.00
C5       0.47879    0.19430    0.67175   1.00
H2       0.44838    0.18357    0.66749   1.00
H2       0.49266    0.17650    0.69523   1.00
C5       0.50129    0.18844    0.63383   1.00
H2       0.53137    0.20017    0.63774   1.00
H2       0.48698    0.20605    0.61052   1.00
C5       0.50262    0.14502    0.62238   1.00
H2       0.47268    0.13305    0.61869   1.00
H2       0.51811    0.12762    0.64500   1.00
C5       0.52445    0.14005    0.58343   1.00
C5       0.51105    0.17479    0.80154   1.00
C5       0.61070    0.32816    0.70102   1.00
H2       0.49088    0.19820    0.81145   1.00
H2       0.53712    0.17452    0.82104   1.00
H2       0.58300    0.33073    0.68410   1.00
H2       0.62895    0.30529    0.68653   1.00
H2       0.69030    0.35819    0.67522   1.00
H2       0.44247    0.15174    0.84487   1.00
H2       0.48763    0.13754    0.86880   1.00
C2       0.39605    0.24780    0.74847   1.00
C3       0.41597    0.25764    0.78316   1.00
O2       0.39674    0.25709    0.81852   1.00
C3       0.41826    0.24067    0.71439   1.00
H1       0.40385    0.23407    0.68714   1.00
C3a      0.45713    0.25912    0.78333   1.00
H1       0.47202    0.26450    0.81062   1.00
C3b      0.45922    0.24095    0.71496   1.00
C4       0.47900    0.25014    0.74960   1.00
O3       0.52167    0.17994    0.76209   1.00
C5       0.38720    0.29542    0.83014   1.00
H2       0.41391    0.31384    0.83322   1.00
C5       0.36674    0.29239    0.86953   1.00
H2       0.36726    0.30949    0.80863   1.00
H2       0.38932    0.28857    0.89258   1.00
H2       0.34907    0.26511    0.86924   1.00
C5       0.34082    0.32794    0.87859   1.00
H2       0.35824    0.35514    0.87571   1.00
C5       0.32453    0.32556    0.92039   1.00
H2       0.31507    0.32931    0.85859   1.00
C5       0.49017    0.13564    0.80479   1.00
H2       0.51215    0.11193    0.80144   1.00
H2       0.46952    0.13301    0.77981   1.00
C5       0.46800    0.13154    0.84364   1.00
C5       0.45225    0.08969    0.84795   1.00
H2       0.69286    0.42627    0.68561   1.00
C5       0.68912    0.42244    0.62164   1.00
H2       0.64323    0.43407    0.66498   1.00
C5       0.53337    0.09653    0.57671   1.00
H2       0.50551    0.15145    0.55858   1.00
H2       0.55293    0.15718    0.58442   1.00
C5       0.30497    0.36456    0.93108   1.00
H2       0.30211    0.30106    0.92217   1.00
H2       0.34937    0.31942    0.94163   1.00
H2       0.43602    0.08105    0.82024   1.00
H2       0.47761    0.06876    0.85293   1.00
C5       0.42417    0.08779    0.88297   1.00
H2       0.70116    0.39356    0.61037   1.00
H2       0.66571    0.43357    0.60081   1.00
H2       0.71374    0.44471    0.62358   1.00
H2       0.51820    0.07837    0.60008   1.00
H2       0.52229    0.08745    0.54670   1.00
H2       0.56621    0.09156    0.57838   1.00
H2       0.28889    0.37654    0.90456   1.00
H2       0.28336    0.35968    0.95588   1.00
H2       0.32819    0.38632    0.94074   1.00
H2       0.39307    0.09330    0.87255   1.00
H2       0.42598    0.05771    0.89701   1.00
H2       0.43266    0.11097    0.90526   1.00
C5       0.29855    -0.13218   0.86712   1.00
H2       0.27000    -0.14745   0.86825   1.00
H2       0.29818    -0.11090   0.89157   1.00
C5       0.33172    -0.16194   0.87276   1.00
C5       0.33761    -0.17123   0.91631   1.00
H2       0.35944    -0.15015   0.86060   1.00
O3       0.31909    0.02000    0.73445   1.00
C4       0.24960    -0.02100   0.74986   1.00
C3c      0.25660    -0.04243   0.78408   1.00
H1       0.26204    -0.02725   0.81119   1.00
C3d      0.24203    -0.04135   0.71496   1.00
C3       0.25728    -0.08354   0.78385   1.00
O2       0.25956    -0.10248   0.81919   1.00
C3       0.24342    -0.08227   0.71447   1.00
H1       0.23881    -0.09657   0.68674   1.00
C2       0.25088    -0.10439   0.74872   1.00
C5       0.32825    0.02121    0.69430   1.00
H2       0.33251    0.05162    0.68357   1.00
H2       0.30477    0.00734    0.67650   1.00
C5       0.36617    -0.00129   0.68844   1.00
H2       0.36226    -0.03137   0.70017   1.00
H2       0.38948    0.01302    0.70605   1.00
C5       0.37762    -0.00262   0.64502   1.00
H2       0.38131    0.02732    0.63305   1.00
H2       0.35500    -0.01811   0.62762   1.00
C5       0.41657    -0.02445   0.64005   1.00
C5       0.19846    -0.01105   0.67479   1.00
C5       0.29898    -0.11070   0.82816   1.00
H2       0.18855    0.00912    0.69820   1.00
H2       0.17896    -0.03712   0.67452   1.00
H2       0.31590    -0.08300   0.83073   1.00
H2       0.31347    -0.12895   0.80529   1.00
H2       0.32478    -0.19030   0.85819   1.00
H2       0.15513    0.05753    0.65174   1.00
H2       0.13120    0.01237    0.63754   1.00
C2       0.25153    0.10395    0.74780   1.00
C3       0.21684    0.08403    0.75764   1.00
O2       0.18148    0.10326    0.75709   1.00
C3       0.28561    0.08174    0.74067   1.00
H1       0.31286    0.09615    0.73407   1.00
C3a      0.21667    0.04287    0.75912   1.00
H1       0.18938    0.02798    0.76450   1.00
C3b      0.28504    0.04078    0.74095   1.00
C4       0.25040    0.02100    0.75014   1.00
O3       0.23791    -0.02167   0.67994   1.00
C5       0.16986    0.11280    0.79542   1.00
H2       0.16678    0.08609    0.81384   1.00
C5       0.13047    0.13326    0.79239   1.00
H2       0.19137    0.13274    0.80949   1.00
H2       0.10742    0.11068    0.78857   1.00
H2       0.13076    0.15093    0.76511   1.00
C5       0.12141    0.15918    0.82794   1.00
H2       0.12429    0.14176    0.85514   1.00
C5       0.07961    0.17547    0.82556   1.00
H2       0.14141    0.18493    0.82931   1.00
C5       0.19521    0.00983    0.63564   1.00
H2       0.19856    -0.01215   0.61193   1.00
H2       0.22019    0.03048    0.63301   1.00
C5       0.15636    0.03200    0.63154   1.00
C5       0.15205    0.04775    0.58969   1.00
H2       0.31439    -0.19286   0.92627   1.00
C5       0.37836    -0.18912   0.92244   1.00
H2       0.33502    -0.14323   0.93407   1.00
C5       0.42329    -0.03337   0.59653   1.00
H2       0.44142    -0.00551   0.65145   1.00
H2       0.41558    -0.05293   0.65718   1.00
C5       0.06892    0.19503    0.86456   1.00
H2       0.07783    0.19789    0.80106   1.00
H2       0.05837    0.15063    0.81942   1.00
H2       0.17976    0.06398    0.58105   1.00
H2       0.14707    0.02239    0.56876   1.00
C5       0.11703    0.07583    0.58779   1.00
H2       0.38963    -0.20116   0.89356   1.00
H2       0.39919    -0.16571   0.93357   1.00
H2       0.37642    -0.21374   0.94471   1.00
H2       0.39992    -0.01820   0.57837   1.00
H2       0.45330    -0.02229   0.58745   1.00
H2       0.42162    -0.06621   0.59156   1.00
H2       0.09544    0.21111    0.87654   1.00
H2       0.04412    0.21664    0.85968   1.00
H2       0.05926    0.17181    0.88632   1.00
H2       0.12745    0.10693    0.59330   1.00
H2       0.10299    0.07402    0.55771   1.00
H2       0.09474    0.06734    0.61097   1.00
C5       0.36712    0.29855    0.36782   1.00
H2       0.36825    0.27000    0.35255   1.00
H2       0.39157    0.29818    0.38910   1.00
C5       0.37276    0.33172    0.33806   1.00
C5       0.41631    0.33761    0.32877   1.00
H2       0.36060    0.35944    0.34985   1.00
O3       0.23445    0.31909    0.52000   1.00
C4       0.24986    0.24960    0.47900   1.00
C3c      0.28408    0.25660    0.45757   1.00
H1       0.31119    0.26204    0.47275   1.00
C3d      0.21496    0.24203    0.45865   1.00
C3       0.28385    0.25728    0.41646   1.00
O2       0.31919    0.25956    0.39752   1.00
C3       0.21447    0.24342    0.41773   1.00
H1       0.18674    0.23881    0.40343   1.00
C2       0.24872    0.25088    0.39561   1.00
C5       0.19430    0.32825    0.52121   1.00
H2       0.18357    0.33251    0.55162   1.00
H2       0.17650    0.30477    0.50734   1.00
C5       0.18844    0.36617    0.49871   1.00
H2       0.20017    0.36226    0.46863   1.00
H2       0.20605    0.38948    0.51302   1.00
C5       0.14502    0.37762    0.49738   1.00
H2       0.13305    0.38131    0.52732   1.00
H2       0.12762    0.35500    0.48189   1.00
C5       0.14005    0.41657    0.47555   1.00
C5       0.17479    0.19846    0.48895   1.00
C5       0.32816    0.29898    0.38930   1.00
H2       0.19820    0.18855    0.50912   1.00
H2       0.17452    0.17896    0.46288   1.00
H2       0.33073    0.31590    0.41700   1.00
H2       0.30529    0.31347    0.37105   1.00
H2       0.35819    0.32478    0.30970   1.00
H2       0.15174    0.15513    0.55753   1.00
H2       0.13754    0.13120    0.51237   1.00
C2       0.24780    0.25153    0.60395   1.00
C3       0.25764    0.21684    0.58403   1.00
O2       0.25709    0.18148    0.60326   1.00
C3       0.24067    0.28561    0.58174   1.00
H1       0.23407    0.31286    0.59615   1.00
C3a      0.25912    0.21667    0.54287   1.00
H1       0.26450    0.18938    0.52798   1.00
C3b      0.24095    0.28504    0.54078   1.00
C4       0.25014    0.25040    0.52100   1.00
O3       0.17994    0.23791    0.47833   1.00
C5       0.29542    0.16986    0.61280   1.00
H2       0.31384    0.16678    0.58609   1.00
C5       0.29239    0.13047    0.63326   1.00
H2       0.30949    0.19137    0.63274   1.00
H2       0.28857    0.10742    0.61068   1.00
H2       0.26511    0.13076    0.65093   1.00
C5       0.32794    0.12141    0.65918   1.00
H2       0.35514    0.12429    0.64176   1.00
C5       0.32556    0.07961    0.67547   1.00
H2       0.32931    0.14141    0.68493   1.00
C5       0.13564    0.19521    0.50983   1.00
H2       0.11193    0.19856    0.48785   1.00
H2       0.13301    0.22019    0.53048   1.00
C5       0.13154    0.15636    0.53200   1.00
C5       0.08969    0.15205    0.54775   1.00
H2       0.42627    0.31439    0.30714   1.00
C5       0.42244    0.37836    0.31088   1.00
H2       0.43407    0.33502    0.35677   1.00
C5       0.09653    0.42329    0.46663   1.00
H2       0.15145    0.44142    0.49449   1.00
H2       0.15718    0.41558    0.44707   1.00
C5       0.36456    0.06892    0.69503   1.00
H2       0.30106    0.07783    0.69789   1.00
H2       0.31942    0.05837    0.65063   1.00
H2       0.08105    0.17976    0.56398   1.00
H2       0.06876    0.14707    0.52239   1.00
C5       0.08779    0.11703    0.57583   1.00
H2       0.39356    0.38963    0.29884   1.00
H2       0.43357    0.39919    0.33429   1.00
H2       0.44471    0.37642    0.28626   1.00
H2       0.07837    0.39992    0.48180   1.00
H2       0.08745    0.45330    0.47771   1.00
H2       0.09156    0.42162    0.43379   1.00
H2       0.37654    0.09544    0.71111   1.00
H2       0.35968    0.04412    0.71664   1.00
H2       0.38632    0.05926    0.67181   1.00
H2       0.09330    0.12745    0.60693   1.00
H2       0.05771    0.10299    0.57402   1.00
H2       0.11097    0.09474    0.56734   1.00
C5       0.36712    0.70145    0.63218   1.00
H2       0.36825    0.73000    0.64745   1.00
H2       0.39157    0.70182    0.61090   1.00
C5       0.37276    0.66828    0.66194   1.00
C5       0.41631    0.66239    0.67123   1.00
H2       0.36060    0.64056    0.65015   1.00
O3       0.23445    0.68091    0.48000   1.00
C4       0.24986    0.75040    0.52100   1.00
C3c      0.28408    0.74340    0.54243   1.00
H1       0.31119    0.73796    0.52725   1.00
C3d      0.21496    0.75797    0.54135   1.00
C3       0.28385    0.74272    0.58354   1.00
O2       0.31919    0.74044    0.60248   1.00
C3       0.21447    0.75658    0.58227   1.00
H1       0.18674    0.76119    0.59657   1.00
C2       0.24872    0.74912    0.60439   1.00
C5       0.19430    0.67175    0.47879   1.00
H2       0.18357    0.66749    0.44838   1.00
H2       0.17650    0.69523    0.49266   1.00
C5       0.18844    0.63383    0.50129   1.00
H2       0.20017    0.63774    0.53137   1.00
H2       0.20605    0.61052    0.48698   1.00
C5       0.14502    0.62238    0.50262   1.00
H2       0.13305    0.61869    0.47268   1.00
H2       0.12762    0.64500    0.51811   1.00
C5       0.14005    0.58343    0.52445   1.00
C5       0.17479    0.80154    0.51105   1.00
C5       0.32816    0.70102    0.61070   1.00
H2       0.19820    0.81145    0.49088   1.00
H2       0.17452    0.82104    0.53712   1.00
H2       0.33073    0.68410    0.58300   1.00
H2       0.30529    0.68653    0.62895   1.00
H2       0.35819    0.67522    0.69030   1.00
H2       0.15174    0.84487    0.44247   1.00
H2       0.13754    0.86880    0.48763   1.00
C2       0.24780    0.74847    0.39605   1.00
C3       0.25764    0.78316    0.41597   1.00
O2       0.25709    0.81852    0.39674   1.00
C3       0.24067    0.71439    0.41826   1.00
H1       0.23407    0.68714    0.40385   1.00
C3a      0.25912    0.78333    0.45713   1.00
H1       0.26450    0.81062    0.47202   1.00
C3b      0.24095    0.71496    0.45922   1.00
C4       0.25014    0.74960    0.47900   1.00
O3       0.17994    0.76209    0.52167   1.00
C5       0.29542    0.83014    0.38720   1.00
H2       0.31384    0.83322    0.41391   1.00
C5       0.29239    0.86953    0.36674   1.00
H2       0.30949    0.80863    0.36726   1.00
H2       0.28857    0.89258    0.38932   1.00
H2       0.26511    0.86924    0.34907   1.00
C5       0.32794    0.87859    0.34082   1.00
H2       0.35514    0.87571    0.35824   1.00
C5       0.32556    0.92039    0.32453   1.00
H2       0.32931    0.85859    0.31507   1.00
C5       0.13564    0.80479    0.49017   1.00
H2       0.11193    0.80144    0.51215   1.00
H2       0.13301    0.77981    0.46952   1.00
C5       0.13154    0.84364    0.46800   1.00
C5       0.08969    0.84795    0.45225   1.00
H2       0.42627    0.68561    0.69286   1.00
C5       0.42244    0.62164    0.68912   1.00
H2       0.43407    0.66498    0.64323   1.00
C5       0.09653    0.57671    0.53337   1.00
H2       0.15145    0.55858    0.50551   1.00
H2       0.15718    0.58442    0.55293   1.00
C5       0.36456    0.93108    0.30497   1.00
H2       0.30106    0.92217    0.30211   1.00
H2       0.31942    0.94163    0.34937   1.00
H2       0.08105    0.82024    0.43602   1.00
H2       0.06876    0.85293    0.47761   1.00
C5       0.08779    0.88297    0.42417   1.00
H2       0.39356    0.61037    0.70116   1.00
H2       0.43357    0.60081    0.66571   1.00
H2       0.44471    0.62358    0.71374   1.00
H2       0.07837    0.60008    0.51820   1.00
H2       0.08745    0.54670    0.52229   1.00
H2       0.09156    0.57838    0.56621   1.00
H2       0.37654    0.90456    0.28889   1.00
H2       0.35968    0.95588    0.28336   1.00
H2       0.38632    0.94074    0.32819   1.00
H2       0.09330    0.87255    0.39307   1.00
H2       0.05771    0.89701    0.42598   1.00
H2       0.11097    0.90526    0.43266   1.00
C5       0.20145    1.13218    0.36712   1.00
H2       0.23000    1.14745    0.36825   1.00
H2       0.20182    1.11090    0.39157   1.00
C5       0.16828    1.16194    0.37276   1.00
C5       0.16239    1.17123    0.41631   1.00
H2       0.14056    1.15015    0.36060   1.00
O3       0.18091    0.98000    0.23445   1.00
C4       0.25040    1.02100    0.24986   1.00
C3c      0.24340    1.04243    0.28408   1.00
H1       0.23796    1.02725    0.31119   1.00
C3d      0.25797    1.04135    0.21496   1.00
C3       0.24272    1.08354    0.28385   1.00
O2       0.24044    1.10248    0.31919   1.00
C3       0.25658    1.08227    0.21447   1.00
H1       0.26119    1.09657    0.18674   1.00
C2       0.24912    1.10439    0.24872   1.00
C5       0.17175    0.97879    0.19430   1.00
H2       0.16749    0.94838    0.18357   1.00
H2       0.19523    0.99266    0.17650   1.00
C5       0.13383    1.00129    0.18844   1.00
H2       0.13774    1.03137    0.20017   1.00
H2       0.11052    0.98698    0.20605   1.00
C5       0.12238    1.00262    0.14502   1.00
H2       0.11869    0.97268    0.13305   1.00
H2       0.14500    1.01811    0.12762   1.00
C5       0.08343    1.02445    0.14005   1.00
C5       0.30154    1.01105    0.17479   1.00
C5       0.20102    1.11070    0.32816   1.00
H2       0.31145    0.99088    0.19820   1.00
H2       0.32104    1.03712    0.17452   1.00
H2       0.18410    1.08300    0.33073   1.00
H2       0.18653    1.12895    0.30529   1.00
H2       0.17522    1.19030    0.35819   1.00
H2       0.34487    0.94247    0.15174   1.00
H2       0.36880    0.98763    0.13754   1.00
C2       0.24847    0.89605    0.24780   1.00
C3       0.28316    0.91597    0.25764   1.00
O2       0.31852    0.89674    0.25709   1.00
C3       0.21439    0.91826    0.24067   1.00
H1       0.18714    0.90385    0.23407   1.00
C3a      0.28333    0.95713    0.25912   1.00
H1       0.31062    0.97202    0.26450   1.00
C3b      0.21496    0.95922    0.24095   1.00
C4       0.24960    0.97900    0.25014   1.00
O3       0.26209    1.02167    0.17994   1.00
C5       0.33014    0.88720    0.29542   1.00
H2       0.33322    0.91391    0.31384   1.00
C5       0.36953    0.86674    0.29239   1.00
H2       0.30863    0.86726    0.30949   1.00
H2       0.39258    0.88932    0.28857   1.00
H2       0.36924    0.84907    0.26511   1.00
C5       0.37859    0.84082    0.32794   1.00
H2       0.37571    0.85824    0.35514   1.00
C5       0.42039    0.82453    0.32556   1.00
H2       0.35859    0.81507    0.32931   1.00
C5       0.30479    0.99017    0.13564   1.00
H2       0.30144    1.01215    0.11193   1.00
H2       0.27981    0.96952    0.13301   1.00
C5       0.34364    0.96800    0.13154   1.00
C5       0.34795    0.95225    0.08969   1.00
H2       0.18561    1.19286    0.42627   1.00
C5       0.12164    1.18912    0.42244   1.00
H2       0.16498    1.14323    0.43407   1.00
C5       0.07671    1.03337    0.09653   1.00
H2       0.05858    1.00551    0.15145   1.00
H2       0.08442    1.05293    0.15718   1.00
C5       0.43108    0.80497    0.36456   1.00
H2       0.42217    0.80211    0.30106   1.00
H2       0.44163    0.84937    0.31942   1.00
H2       0.32024    0.93602    0.08105   1.00
H2       0.35293    0.97761    0.06876   1.00
C5       0.38297    0.92417    0.08779   1.00
H2       0.11037    1.20116    0.39356   1.00
H2       0.10081    1.16571    0.43357   1.00
H2       0.12358    1.21374    0.44471   1.00
H2       0.10008    1.01820    0.07837   1.00
H2       0.04670    1.02229    0.08745   1.00
H2       0.07838    1.06621    0.09156   1.00
H2       0.40456    0.78889    0.37654   1.00
H2       0.45588    0.78336    0.35968   1.00
H2       0.44074    0.82819    0.38632   1.00
H2       0.37255    0.89307    0.09330   1.00
H2       0.39701    0.92598    0.05771   1.00
H2       0.40526    0.93266    0.11097   1.00
C5       -0.13218   0.86712    0.29855   1.00
H2       -0.14745   0.86825    0.27000   1.00
H2       -0.11090   0.89157    0.29818   1.00
C5       -0.16194   0.87276    0.33172   1.00
C5       -0.17123   0.91631    0.33761   1.00
H2       -0.15015   0.86060    0.35944   1.00
O3       0.02000    0.73445    0.31909   1.00
C4       -0.02100   0.74986    0.24960   1.00
C3c      -0.04243   0.78408    0.25660   1.00
H1       -0.02725   0.81119    0.26204   1.00
C3d      -0.04135   0.71496    0.24203   1.00
C3       -0.08354   0.78385    0.25728   1.00
O2       -0.10248   0.81919    0.25956   1.00
C3       -0.08227   0.71447    0.24342   1.00
H1       -0.09657   0.68674    0.23881   1.00
C2       -0.10439   0.74872    0.25088   1.00
C5       0.02121    0.69430    0.32825   1.00
H2       0.05162    0.68357    0.33251   1.00
H2       0.00734    0.67650    0.30477   1.00
C5       -0.00129   0.68844    0.36617   1.00
H2       -0.03137   0.70017    0.36226   1.00
H2       0.01302    0.70605    0.38948   1.00
C5       -0.00262   0.64502    0.37762   1.00
H2       0.02732    0.63305    0.38131   1.00
H2       -0.01811   0.62762    0.35500   1.00
C5       -0.02445   0.64005    0.41657   1.00
C5       -0.01105   0.67479    0.19846   1.00
C5       -0.11070   0.82816    0.29898   1.00
H2       0.00912    0.69820    0.18855   1.00
H2       -0.03712   0.67452    0.17896   1.00
H2       -0.08300   0.83073    0.31590   1.00
H2       -0.12895   0.80529    0.31347   1.00
H2       -0.19030   0.85819    0.32478   1.00
H2       0.05753    0.65174    0.15513   1.00
H2       0.01237    0.63754    0.13120   1.00
C2       0.10395    0.74780    0.25153   1.00
C3       0.08403    0.75764    0.21684   1.00
O2       0.10326    0.75709    0.18148   1.00
C3       0.08174    0.74067    0.28561   1.00
H1       0.09615    0.73407    0.31286   1.00
C3a      0.04287    0.75912    0.21667   1.00
H1       0.02798    0.76450    0.18938   1.00
C3b      0.04078    0.74095    0.28504   1.00
C4       0.02100    0.75014    0.25040   1.00
O3       -0.02167   0.67994    0.23791   1.00
C5       0.11280    0.79542    0.16986   1.00
H2       0.08609    0.81384    0.16678   1.00
C5       0.13326    0.79239    0.13047   1.00
H2       0.13274    0.80949    0.19137   1.00
H2       0.11068    0.78857    0.10742   1.00
H2       0.15093    0.76511    0.13076   1.00
C5       0.15918    0.82794    0.12141   1.00
H2       0.14176    0.85514    0.12429   1.00
C5       0.17547    0.82556    0.07961   1.00
H2       0.18493    0.82931    0.14141   1.00
C5       0.00983    0.63564    0.19521   1.00
H2       -0.01215   0.61193    0.19856   1.00
H2       0.03048    0.63301    0.22019   1.00
C5       0.03200    0.63154    0.15636   1.00
C5       0.04775    0.58969    0.15205   1.00
H2       -0.19286   0.92627    0.31439   1.00
C5       -0.18912   0.92244    0.37836   1.00
H2       -0.14323   0.93407    0.33502   1.00
C5       -0.03337   0.59653    0.42329   1.00
H2       -0.00551   0.65145    0.44142   1.00
H2       -0.05293   0.65718    0.41558   1.00
C5       0.19503    0.86456    0.06892   1.00
H2       0.19789    0.80106    0.07783   1.00
H2       0.15063    0.81942    0.05837   1.00
H2       0.06398    0.58105    0.17976   1.00
H2       0.02239    0.56876    0.14707   1.00
C5       0.07583    0.58779    0.11703   1.00
H2       -0.20116   0.89356    0.38963   1.00
H2       -0.16571   0.93357    0.39919   1.00
H2       -0.21374   0.94471    0.37642   1.00
H2       -0.01820   0.57837    0.39992   1.00
H2       -0.02229   0.58745    0.45330   1.00
H2       -0.06621   0.59156    0.42162   1.00
H2       0.21111    0.87654    0.09544   1.00
H2       0.21664    0.85968    0.04412   1.00
H2       0.17181    0.88632    0.05926   1.00
H2       0.10693    0.59330    0.12745   1.00
H2       0.07402    0.55771    0.10299   1.00
H2       0.06734    0.61097    0.09474   1.00
C5       0.63218    0.86712    0.20145   1.00
H2       0.64745    0.86825    0.23000   1.00
H2       0.61090    0.89157    0.20182   1.00
C5       0.66194    0.87276    0.16828   1.00
C5       0.67123    0.91631    0.16239   1.00
H2       0.65015    0.86060    0.14056   1.00
O3       0.48000    0.73445    0.18091   1.00
C4       0.52100    0.74986    0.25040   1.00
C3c      0.54243    0.78408    0.24340   1.00
H1       0.52725    0.81119    0.23796   1.00
C3d      0.54135    0.71496    0.25797   1.00
C3       0.58354    0.78385    0.24272   1.00
O2       0.60248    0.81919    0.24044   1.00
C3       0.58227    0.71447    0.25658   1.00
H1       0.59657    0.68674    0.26119   1.00
C2       0.60439    0.74872    0.24912   1.00
C5       0.47879    0.69430    0.17175   1.00
H2       0.44838    0.68357    0.16749   1.00
H2       0.49266    0.67650    0.19523   1.00
C5       0.50129    0.68844    0.13383   1.00
H2       0.53137    0.70017    0.13774   1.00
H2       0.48698    0.70605    0.11052   1.00
C5       0.50262    0.64502    0.12238   1.00
H2       0.47268    0.63305    0.11869   1.00
H2       0.51811    0.62762    0.14500   1.00
C5       0.52445    0.64005    0.08343   1.00
C5       0.51105    0.67479    0.30154   1.00
C5       0.61070    0.82816    0.20102   1.00
H2       0.49088    0.69820    0.31145   1.00
H2       0.53712    0.67452    0.32104   1.00
H2       0.58300    0.83073    0.18410   1.00
H2       0.62895    0.80529    0.18653   1.00
H2       0.69030    0.85819    0.17522   1.00
H2       0.44247    0.65174    0.34487   1.00
H2       0.48763    0.63754    0.36880   1.00
C2       0.39605    0.74780    0.24847   1.00
C3       0.41597    0.75764    0.28316   1.00
O2       0.39674    0.75709    0.31852   1.00
C3       0.41826    0.74067    0.21439   1.00
H1       0.40385    0.73407    0.18714   1.00
C3a      0.45713    0.75912    0.28333   1.00
H1       0.47202    0.76450    0.31062   1.00
C3b      0.45922    0.74095    0.21496   1.00
C4       0.47900    0.75014    0.24960   1.00
O3       0.52167    0.67994    0.26209   1.00
C5       0.38720    0.79542    0.33014   1.00
H2       0.41391    0.81384    0.33322   1.00
C5       0.36674    0.79239    0.36953   1.00
H2       0.36726    0.80949    0.30863   1.00
H2       0.38932    0.78857    0.39258   1.00
H2       0.34907    0.76511    0.36924   1.00
C5       0.34082    0.82794    0.37859   1.00
H2       0.35824    0.85514    0.37571   1.00
C5       0.32453    0.82556    0.42039   1.00
H2       0.31507    0.82931    0.35859   1.00
C5       0.49017    0.63564    0.30479   1.00
H2       0.51215    0.61193    0.30144   1.00
H2       0.46952    0.63301    0.27981   1.00
C5       0.46800    0.63154    0.34364   1.00
C5       0.45225    0.58969    0.34795   1.00
H2       0.69286    0.92627    0.18561   1.00
C5       0.68912    0.92244    0.12164   1.00
H2       0.64323    0.93407    0.16498   1.00
C5       0.53337    0.59653    0.07671   1.00
H2       0.50551    0.65145    0.05858   1.00
H2       0.55293    0.65718    0.08442   1.00
C5       0.30497    0.86456    0.43108   1.00
H2       0.30211    0.80106    0.42217   1.00
H2       0.34937    0.81942    0.44163   1.00
H2       0.43602    0.58105    0.32024   1.00
H2       0.47761    0.56876    0.35293   1.00
C5       0.42417    0.58779    0.38297   1.00
H2       0.70116    0.89356    0.11037   1.00
H2       0.66571    0.93357    0.10081   1.00
H2       0.71374    0.94471    0.12358   1.00
H2       0.51820    0.57837    0.10008   1.00
H2       0.52229    0.58745    0.04670   1.00
H2       0.56621    0.59156    0.07838   1.00
H2       0.28889    0.87654    0.40456   1.00
H2       0.28336    0.85968    0.45588   1.00
H2       0.32819    0.88632    0.44074   1.00
H2       0.39307    0.59330    0.37255   1.00
H2       0.42598    0.55771    0.39701   1.00
H2       0.43266    0.61097    0.40526   1.00
C5       0.29855    0.36782    0.36712   1.00
H2       0.27000    0.35255    0.36825   1.00
H2       0.29818    0.38910    0.39157   1.00
C5       0.33172    0.33806    0.37276   1.00
C5       0.33761    0.32877    0.41631   1.00
H2       0.35944    0.34985    0.36060   1.00
O3       0.31909    0.52000    0.23445   1.00
C4       0.24960    0.47900    0.24986   1.00
C3c      0.25660    0.45757    0.28408   1.00
H1       0.26204    0.47275    0.31119   1.00
C3d      0.24203    0.45865    0.21496   1.00
C3       0.25728    0.41646    0.28385   1.00
O2       0.25956    0.39752    0.31919   1.00
C3       0.24342    0.41773    0.21447   1.00
H1       0.23881    0.40343    0.18674   1.00
C2       0.25088    0.39561    0.24872   1.00
C5       0.32825    0.52121    0.19430   1.00
H2       0.33251    0.55162    0.18357   1.00
H2       0.30477    0.50734    0.17650   1.00
C5       0.36617    0.49871    0.18844   1.00
H2       0.36226    0.46863    0.20017   1.00
H2       0.38948    0.51302    0.20605   1.00
C5       0.37762    0.49738    0.14502   1.00
H2       0.38131    0.52732    0.13305   1.00
H2       0.35500    0.48189    0.12762   1.00
C5       0.41657    0.47555    0.14005   1.00
C5       0.19846    0.48895    0.17479   1.00
C5       0.29898    0.38930    0.32816   1.00
H2       0.18855    0.50912    0.19820   1.00
H2       0.17896    0.46288    0.17452   1.00
H2       0.31590    0.41700    0.33073   1.00
H2       0.31347    0.37105    0.30529   1.00
H2       0.32478    0.30970    0.35819   1.00
H2       0.15513    0.55753    0.15174   1.00
H2       0.13120    0.51237    0.13754   1.00
C2       0.25153    0.60395    0.24780   1.00
C3       0.21684    0.58403    0.25764   1.00
O2       0.18148    0.60326    0.25709   1.00
C3       0.28561    0.58174    0.24067   1.00
H1       0.31286    0.59615    0.23407   1.00
C3a      0.21667    0.54287    0.25912   1.00
H1       0.18938    0.52798    0.26450   1.00
C3b      0.28504    0.54078    0.24095   1.00
C4       0.25040    0.52100    0.25014   1.00
O3       0.23791    0.47833    0.17994   1.00
C5       0.16986    0.61280    0.29542   1.00
H2       0.16678    0.58609    0.31384   1.00
C5       0.13047    0.63326    0.29239   1.00
H2       0.19137    0.63274    0.30949   1.00
H2       0.10742    0.61068    0.28857   1.00
H2       0.13076    0.65093    0.26511   1.00
C5       0.12141    0.65918    0.32794   1.00
H2       0.12429    0.64176    0.35514   1.00
C5       0.07961    0.67547    0.32556   1.00
H2       0.14141    0.68493    0.32931   1.00
C5       0.19521    0.50983    0.13564   1.00
H2       0.19856    0.48785    0.11193   1.00
H2       0.22019    0.53048    0.13301   1.00
C5       0.15636    0.53200    0.13154   1.00
C5       0.15205    0.54775    0.08969   1.00
H2       0.31439    0.30714    0.42627   1.00
C5       0.37836    0.31088    0.42244   1.00
H2       0.33502    0.35677    0.43407   1.00
C5       0.42329    0.46663    0.09653   1.00
H2       0.44142    0.49449    0.15145   1.00
H2       0.41558    0.44707    0.15718   1.00
C5       0.06892    0.69503    0.36456   1.00
H2       0.07783    0.69789    0.30106   1.00
H2       0.05837    0.65063    0.31942   1.00
H2       0.17976    0.56398    0.08105   1.00
H2       0.14707    0.52239    0.06876   1.00
C5       0.11703    0.57583    0.08779   1.00
H2       0.38963    0.29884    0.39356   1.00
H2       0.39919    0.33429    0.43357   1.00
H2       0.37642    0.28626    0.44471   1.00
H2       0.39992    0.48180    0.07837   1.00
H2       0.45330    0.47771    0.08745   1.00
H2       0.42162    0.43379    0.09156   1.00
H2       0.09544    0.71111    0.37654   1.00
H2       0.04412    0.71664    0.35968   1.00
H2       0.05926    0.67181    0.38632   1.00
H2       0.12745    0.60693    0.09330   1.00
H2       0.10299    0.57402    0.05771   1.00
H2       0.09474    0.56734    0.11097   1.00
C5       0.36712    0.79855    -0.13218   1.00
H2       0.36825    0.77000    -0.14745   1.00
H2       0.39157    0.79818    -0.11090   1.00
C5       0.37276    0.83172    -0.16194   1.00
C5       0.41631    0.83761    -0.17123   1.00
H2       0.36060    0.85944    -0.15015   1.00
O3       0.23445    0.81909    0.02000   1.00
C4       0.24986    0.74960    -0.02100   1.00
C3c      0.28408    0.75660    -0.04243   1.00
H1       0.31119    0.76204    -0.02725   1.00
C3d      0.21496    0.74203    -0.04135   1.00
C3       0.28385    0.75728    -0.08354   1.00
O2       0.31919    0.75956    -0.10248   1.00
C3       0.21447    0.74342    -0.08227   1.00
H1       0.18674    0.73881    -0.09657   1.00
C2       0.24872    0.75088    -0.10439   1.00
C5       0.19430    0.82825    0.02121   1.00
H2       0.18357    0.83251    0.05162   1.00
H2       0.17650    0.80477    0.00734   1.00
C5       0.18844    0.86617    -0.00129   1.00
H2       0.20017    0.86226    -0.03137   1.00
H2       0.20605    0.88948    0.01302   1.00
C5       0.14502    0.87762    -0.00262   1.00
H2       0.13305    0.88131    0.02732   1.00
H2       0.12762    0.85500    -0.01811   1.00
C5       0.14005    0.91657    -0.02445   1.00
C5       0.17479    0.69846    -0.01105   1.00
C5       0.32816    0.79898    -0.11070   1.00
H2       0.19820    0.68855    0.00912   1.00
H2       0.17452    0.67896    -0.03712   1.00
H2       0.33073    0.81590    -0.08300   1.00
H2       0.30529    0.81347    -0.12895   1.00
H2       0.35819    0.82478    -0.19030   1.00
H2       0.15174    0.65513    0.05753   1.00
H2       0.13754    0.63120    0.01237   1.00
C2       0.24780    0.75153    0.10395   1.00
C3       0.25764    0.71684    0.08403   1.00
O2       0.25709    0.68148    0.10326   1.00
C3       0.24067    0.78561    0.08174   1.00
H1       0.23407    0.81286    0.09615   1.00
C3a      0.25912    0.71667    0.04287   1.00
H1       0.26450    0.68938    0.02798   1.00
C3b      0.24095    0.78504    0.04078   1.00
C4       0.25014    0.75040    0.02100   1.00
O3       0.17994    0.73791    -0.02167   1.00
C5       0.29542    0.66986    0.11280   1.00
H2       0.31384    0.66678    0.08609   1.00
C5       0.29239    0.63047    0.13326   1.00
H2       0.30949    0.69137    0.13274   1.00
H2       0.28857    0.60742    0.11068   1.00
H2       0.26511    0.63076    0.15093   1.00
C5       0.32794    0.62141    0.15918   1.00
H2       0.35514    0.62429    0.14176   1.00
C5       0.32556    0.57961    0.17547   1.00
H2       0.32931    0.64141    0.18493   1.00
C5       0.13564    0.69521    0.00983   1.00
H2       0.11193    0.69856    -0.01215   1.00
H2       0.13301    0.72019    0.03048   1.00
C5       0.13154    0.65636    0.03200   1.00
C5       0.08969    0.65205    0.04775   1.00
H2       0.42627    0.81439    -0.19286   1.00
C5       0.42244    0.87836    -0.18912   1.00
H2       0.43407    0.83502    -0.14323   1.00
C5       0.09653    0.92329    -0.03337   1.00
H2       0.15145    0.94142    -0.00551   1.00
H2       0.15718    0.91558    -0.05293   1.00
C5       0.36456    0.56892    0.19503   1.00
H2       0.30106    0.57783    0.19789   1.00
H2       0.31942    0.55837    0.15063   1.00
H2       0.08105    0.67976    0.06398   1.00
H2       0.06876    0.64707    0.02239   1.00
C5       0.08779    0.61703    0.07583   1.00
H2       0.39356    0.88963    -0.20116   1.00
H2       0.43357    0.89919    -0.16571   1.00
H2       0.44471    0.87642    -0.21374   1.00
H2       0.07837    0.89992    -0.01820   1.00
H2       0.08745    0.95330    -0.02229   1.00
H2       0.09156    0.92162    -0.06621   1.00
H2       0.37654    0.59544    0.21111   1.00
H2       0.35968    0.54412    0.21664   1.00
H2       0.38632    0.55926    0.17181   1.00
H2       0.09330    0.62745    0.10693   1.00
H2       0.05771    0.60299    0.07402   1.00
H2       0.11097    0.59474    0.06734   1.00
C5       0.86712    0.20145    0.63218   1.00
H2       0.86825    0.23000    0.64745   1.00
H2       0.89157    0.20182    0.61090   1.00
C5       0.87276    0.16828    0.66194   1.00
C5       0.91631    0.16239    0.67123   1.00
H2       0.86060    0.14056    0.65015   1.00
O3       0.73445    0.18091    0.48000   1.00
C4       0.74986    0.25040    0.52100   1.00
C3c      0.78408    0.24340    0.54243   1.00
H1       0.81119    0.23796    0.52725   1.00
C3d      0.71496    0.25797    0.54135   1.00
C3       0.78385    0.24272    0.58354   1.00
O2       0.81919    0.24044    0.60248   1.00
C3       0.71447    0.25658    0.58227   1.00
H1       0.68674    0.26119    0.59657   1.00
C2       0.74872    0.24912    0.60439   1.00
C5       0.69430    0.17175    0.47879   1.00
H2       0.68357    0.16749    0.44838   1.00
H2       0.67650    0.19523    0.49266   1.00
C5       0.68844    0.13383    0.50129   1.00
H2       0.70017    0.13774    0.53137   1.00
H2       0.70605    0.11052    0.48698   1.00
C5       0.64502    0.12238    0.50262   1.00
H2       0.63305    0.11869    0.47268   1.00
H2       0.62762    0.14500    0.51811   1.00
C5       0.64005    0.08343    0.52445   1.00
C5       0.67479    0.30154    0.51105   1.00
C5       0.82816    0.20102    0.61070   1.00
H2       0.69820    0.31145    0.49088   1.00
H2       0.67452    0.32104    0.53712   1.00
H2       0.83073    0.18410    0.58300   1.00
H2       0.80529    0.18653    0.62895   1.00
H2       0.85819    0.17522    0.69030   1.00
H2       0.65174    0.34487    0.44247   1.00
H2       0.63754    0.36880    0.48763   1.00
C2       0.74780    0.24847    0.39605   1.00
C3       0.75764    0.28316    0.41597   1.00
O2       0.75709    0.31852    0.39674   1.00
C3       0.74067    0.21439    0.41826   1.00
H1       0.73407    0.18714    0.40385   1.00
C3a      0.75912    0.28333    0.45713   1.00
H1       0.76450    0.31062    0.47202   1.00
C3b      0.74095    0.21496    0.45922   1.00
C4       0.75014    0.24960    0.47900   1.00
O3       0.67994    0.26209    0.52167   1.00
C5       0.79542    0.33014    0.38720   1.00
H2       0.81384    0.33322    0.41391   1.00
C5       0.79239    0.36953    0.36674   1.00
H2       0.80949    0.30863    0.36726   1.00
H2       0.78857    0.39258    0.38932   1.00
H2       0.76511    0.36924    0.34907   1.00
C5       0.82794    0.37859    0.34082   1.00
H2       0.85514    0.37571    0.35824   1.00
C5       0.82556    0.42039    0.32453   1.00
H2       0.82931    0.35859    0.31507   1.00
C5       0.63564    0.30479    0.49017   1.00
H2       0.61193    0.30144    0.51215   1.00
H2       0.63301    0.27981    0.46952   1.00
C5       0.63154    0.34364    0.46800   1.00
C5       0.58969    0.34795    0.45225   1.00
H2       0.92627    0.18561    0.69286   1.00
C5       0.92244    0.12164    0.68912   1.00
H2       0.93407    0.16498    0.64323   1.00
C5       0.59653    0.07671    0.53337   1.00
H2       0.65145    0.05858    0.50551   1.00
H2       0.65718    0.08442    0.55293   1.00
C5       0.86456    0.43108    0.30497   1.00
H2       0.80106    0.42217    0.30211   1.00
H2       0.81942    0.44163    0.34937   1.00
H2       0.58105    0.32024    0.43602   1.00
H2       0.56876    0.35293    0.47761   1.00
C5       0.58779    0.38297    0.42417   1.00
H2       0.89356    0.11037    0.70116   1.00
H2       0.93357    0.10081    0.66571   1.00
H2       0.94471    0.12358    0.71374   1.00
H2       0.57837    0.10008    0.51820   1.00
H2       0.58745    0.04670    0.52229   1.00
H2       0.59156    0.07838    0.56621   1.00
H2       0.87654    0.40456    0.28889   1.00
H2       0.85968    0.45588    0.28336   1.00
H2       0.88632    0.44074    0.32819   1.00
H2       0.59330    0.37255    0.39307   1.00
H2       0.55771    0.39701    0.42598   1.00
H2       0.61097    0.40526    0.43266   1.00
C5       0.70145    0.63218    0.36712   1.00
H2       0.73000    0.64745    0.36825   1.00
H2       0.70182    0.61090    0.39157   1.00
C5       0.66828    0.66194    0.37276   1.00
C5       0.66239    0.67123    0.41631   1.00
H2       0.64056    0.65015    0.36060   1.00
O3       0.68091    0.48000    0.23445   1.00
C4       0.75040    0.52100    0.24986   1.00
C3c      0.74340    0.54243    0.28408   1.00
H1       0.73796    0.52725    0.31119   1.00
C3d      0.75797    0.54135    0.21496   1.00
C3       0.74272    0.58354    0.28385   1.00
O2       0.74044    0.60248    0.31919   1.00
C3       0.75658    0.58227    0.21447   1.00
H1       0.76119    0.59657    0.18674   1.00
C2       0.74912    0.60439    0.24872   1.00
C5       0.67175    0.47879    0.19430   1.00
H2       0.66749    0.44838    0.18357   1.00
H2       0.69523    0.49266    0.17650   1.00
C5       0.63383    0.50129    0.18844   1.00
H2       0.63774    0.53137    0.20017   1.00
H2       0.61052    0.48698    0.20605   1.00
C5       0.62238    0.50262    0.14502   1.00
H2       0.61869    0.47268    0.13305   1.00
H2       0.64500    0.51811    0.12762   1.00
C5       0.58343    0.52445    0.14005   1.00
C5       0.80154    0.51105    0.17479   1.00
C5       0.70102    0.61070    0.32816   1.00
H2       0.81145    0.49088    0.19820   1.00
H2       0.82104    0.53712    0.17452   1.00
H2       0.68410    0.58300    0.33073   1.00
H2       0.68653    0.62895    0.30529   1.00
H2       0.67522    0.69030    0.35819   1.00
H2       0.84487    0.44247    0.15174   1.00
H2       0.86880    0.48763    0.13754   1.00
C2       0.74847    0.39605    0.24780   1.00
C3       0.78316    0.41597    0.25764   1.00
O2       0.81852    0.39674    0.25709   1.00
C3       0.71439    0.41826    0.24067   1.00
H1       0.68714    0.40385    0.23407   1.00
C3a      0.78333    0.45713    0.25912   1.00
H1       0.81062    0.47202    0.26450   1.00
C3b      0.71496    0.45922    0.24095   1.00
C4       0.74960    0.47900    0.25014   1.00
O3       0.76209    0.52167    0.17994   1.00
C5       0.83014    0.38720    0.29542   1.00
H2       0.83322    0.41391    0.31384   1.00
C5       0.86953    0.36674    0.29239   1.00
H2       0.80863    0.36726    0.30949   1.00
H2       0.89258    0.38932    0.28857   1.00
H2       0.86924    0.34907    0.26511   1.00
C5       0.87859    0.34082    0.32794   1.00
H2       0.87571    0.35824    0.35514   1.00
C5       0.92039    0.32453    0.32556   1.00
H2       0.85859    0.31507    0.32931   1.00
C5       0.80479    0.49017    0.13564   1.00
H2       0.80144    0.51215    0.11193   1.00
H2       0.77981    0.46952    0.13301   1.00
C5       0.84364    0.46800    0.13154   1.00
C5       0.84795    0.45225    0.08969   1.00
H2       0.68561    0.69286    0.42627   1.00
C5       0.62164    0.68912    0.42244   1.00
H2       0.66498    0.64323    0.43407   1.00
C5       0.57671    0.53337    0.09653   1.00
H2       0.55858    0.50551    0.15145   1.00
H2       0.58442    0.55293    0.15718   1.00
C5       0.93108    0.30497    0.36456   1.00
H2       0.92217    0.30211    0.30106   1.00
H2       0.94163    0.34937    0.31942   1.00
H2       0.82024    0.43602    0.08105   1.00
H2       0.85293    0.47761    0.06876   1.00
C5       0.88297    0.42417    0.08779   1.00
H2       0.61037    0.70116    0.39356   1.00
H2       0.60081    0.66571    0.43357   1.00
H2       0.62358    0.71374    0.44471   1.00
H2       0.60008    0.51820    0.07837   1.00
H2       0.54670    0.52229    0.08745   1.00
H2       0.57838    0.56621    0.09156   1.00
H2       0.90456    0.28889    0.37654   1.00
H2       0.95588    0.28336    0.35968   1.00
H2       0.94074    0.32819    0.38632   1.00
H2       0.87255    0.39307    0.09330   1.00
H2       0.89701    0.42598    0.05771   1.00
H2       0.90526    0.43266    0.11097   1.00
C5       0.36782    0.36712    0.29855   1.00
H2       0.35255    0.36825    0.27000   1.00
H2       0.38910    0.39157    0.29818   1.00
C5       0.33806    0.37276    0.33172   1.00
C5       0.32877    0.41631    0.33761   1.00
H2       0.34985    0.36060    0.35944   1.00
O3       0.52000    0.23445    0.31909   1.00
C4       0.47900    0.24986    0.24960   1.00
C3c      0.45757    0.28408    0.25660   1.00
H1       0.47275    0.31119    0.26204   1.00
C3d      0.45865    0.21496    0.24203   1.00
C3       0.41646    0.28385    0.25728   1.00
O2       0.39752    0.31919    0.25956   1.00
C3       0.41773    0.21447    0.24342   1.00
H1       0.40343    0.18674    0.23881   1.00
C2       0.39561    0.24872    0.25088   1.00
C5       0.52121    0.19430    0.32825   1.00
H2       0.55162    0.18357    0.33251   1.00
H2       0.50734    0.17650    0.30477   1.00
C5       0.49871    0.18844    0.36617   1.00
H2       0.46863    0.20017    0.36226   1.00
H2       0.51302    0.20605    0.38948   1.00
C5       0.49738    0.14502    0.37762   1.00
H2       0.52732    0.13305    0.38131   1.00
H2       0.48189    0.12762    0.35500   1.00
C5       0.47555    0.14005    0.41657   1.00
C5       0.48895    0.17479    0.19846   1.00
C5       0.38930    0.32816    0.29898   1.00
H2       0.50912    0.19820    0.18855   1.00
H2       0.46288    0.17452    0.17896   1.00
H2       0.41700    0.33073    0.31590   1.00
H2       0.37105    0.30529    0.31347   1.00
H2       0.30970    0.35819    0.32478   1.00
H2       0.55753    0.15174    0.15513   1.00
H2       0.51237    0.13754    0.13120   1.00
C2       0.60395    0.24780    0.25153   1.00
C3       0.58403    0.25764    0.21684   1.00
O2       0.60326    0.25709    0.18148   1.00
C3       0.58174    0.24067    0.28561   1.00
H1       0.59615    0.23407    0.31286   1.00
C3a      0.54287    0.25912    0.21667   1.00
H1       0.52798    0.26450    0.18938   1.00
C3b      0.54078    0.24095    0.28504   1.00
C4       0.52100    0.25014    0.25040   1.00
O3       0.47833    0.17994    0.23791   1.00
C5       0.61280    0.29542    0.16986   1.00
H2       0.58609    0.31384    0.16678   1.00
C5       0.63326    0.29239    0.13047   1.00
H2       0.63274    0.30949    0.19137   1.00
H2       0.61068    0.28857    0.10742   1.00
H2       0.65093    0.26511    0.13076   1.00
C5       0.65918    0.32794    0.12141   1.00
H2       0.64176    0.35514    0.12429   1.00
C5       0.67547    0.32556    0.07961   1.00
H2       0.68493    0.32931    0.14141   1.00
C5       0.50983    0.13564    0.19521   1.00
H2       0.48785    0.11193    0.19856   1.00
H2       0.53048    0.13301    0.22019   1.00
C5       0.53200    0.13154    0.15636   1.00
C5       0.54775    0.08969    0.15205   1.00
H2       0.30714    0.42627    0.31439   1.00
C5       0.31088    0.42244    0.37836   1.00
H2       0.35677    0.43407    0.33502   1.00
C5       0.46663    0.09653    0.42329   1.00
H2       0.49449    0.15145    0.44142   1.00
H2       0.44707    0.15718    0.41558   1.00
C5       0.69503    0.36456    0.06892   1.00
H2       0.69789    0.30106    0.07783   1.00
H2       0.65063    0.31942    0.05837   1.00
H2       0.56398    0.08105    0.17976   1.00
H2       0.52239    0.06876    0.14707   1.00
C5       0.57583    0.08779    0.11703   1.00
H2       0.29884    0.39356    0.38963   1.00
H2       0.33429    0.43357    0.39919   1.00
H2       0.28626    0.44471    0.37642   1.00
H2       0.48180    0.07837    0.39992   1.00
H2       0.47771    0.08745    0.45330   1.00
H2       0.43379    0.09156    0.42162   1.00
H2       0.71111    0.37654    0.09544   1.00
H2       0.71664    0.35968    0.04412   1.00
H2       0.67181    0.38632    0.05926   1.00
H2       0.60693    0.09330    0.12745   1.00
H2       0.57402    0.05771    0.10299   1.00
H2       0.56734    0.11097    0.09474   1.00
C5       1.13218    0.36712    0.20145   1.00
H2       1.14745    0.36825    0.23000   1.00
H2       1.11090    0.39157    0.20182   1.00
C5       1.16194    0.37276    0.16828   1.00
C5       1.17123    0.41631    0.16239   1.00
H2       1.15015    0.36060    0.14056   1.00
O3       0.98000    0.23445    0.18091   1.00
C4       1.02100    0.24986    0.25040   1.00
C3c      1.04243    0.28408    0.24340   1.00
H1       1.02725    0.31119    0.23796   1.00
C3d      1.04135    0.21496    0.25797   1.00
C3       1.08354    0.28385    0.24272   1.00
O2       1.10248    0.31919    0.24044   1.00
C3       1.08227    0.21447    0.25658   1.00
H1       1.09657    0.18674    0.26119   1.00
C2       1.10439    0.24872    0.24912   1.00
C5       0.97879    0.19430    0.17175   1.00
H2       0.94838    0.18357    0.16749   1.00
H2       0.99266    0.17650    0.19523   1.00
C5       1.00129    0.18844    0.13383   1.00
H2       1.03137    0.20017    0.13774   1.00
H2       0.98698    0.20605    0.11052   1.00
C5       1.00262    0.14502    0.12238   1.00
H2       0.97268    0.13305    0.11869   1.00
H2       1.01811    0.12762    0.14500   1.00
C5       1.02445    0.14005    0.08343   1.00
C5       1.01105    0.17479    0.30154   1.00
C5       1.11070    0.32816    0.20102   1.00
H2       0.99088    0.19820    0.31145   1.00
H2       1.03712    0.17452    0.32104   1.00
H2       1.08300    0.33073    0.18410   1.00
H2       1.12895    0.30529    0.18653   1.00
H2       1.19030    0.35819    0.17522   1.00
H2       0.94247    0.15174    0.34487   1.00
H2       0.98763    0.13754    0.36880   1.00
C2       0.89605    0.24780    0.24847   1.00
C3       0.91597    0.25764    0.28316   1.00
O2       0.89674    0.25709    0.31852   1.00
C3       0.91826    0.24067    0.21439   1.00
H1       0.90385    0.23407    0.18714   1.00
C3a      0.95713    0.25912    0.28333   1.00
H1       0.97202    0.26450    0.31062   1.00
C3b      0.95922    0.24095    0.21496   1.00
C4       0.97900    0.25014    0.24960   1.00
O3       1.02167    0.17994    0.26209   1.00
C5       0.88720    0.29542    0.33014   1.00
H2       0.91391    0.31384    0.33322   1.00
C5       0.86674    0.29239    0.36953   1.00
H2       0.86726    0.30949    0.30863   1.00
H2       0.88932    0.28857    0.39258   1.00
H2       0.84907    0.26511    0.36924   1.00
C5       0.84082    0.32794    0.37859   1.00
H2       0.85824    0.35514    0.37571   1.00
C5       0.82453    0.32556    0.42039   1.00
H2       0.81507    0.32931    0.35859   1.00
C5       0.99017    0.13564    0.30479   1.00
H2       1.01215    0.11193    0.30144   1.00
H2       0.96952    0.13301    0.27981   1.00
C5       0.96800    0.13154    0.34364   1.00
C5       0.95225    0.08969    0.34795   1.00
H2       1.19286    0.42627    0.18561   1.00
C5       1.18912    0.42244    0.12164   1.00
H2       1.14323    0.43407    0.16498   1.00
C5       1.03337    0.09653    0.07671   1.00
H2       1.00551    0.15145    0.05858   1.00
H2       1.05293    0.15718    0.08442   1.00
C5       0.80497    0.36456    0.43108   1.00
H2       0.80211    0.30106    0.42217   1.00
H2       0.84937    0.31942    0.44163   1.00
H2       0.93602    0.08105    0.32024   1.00
H2       0.97761    0.06876    0.35293   1.00
C5       0.92417    0.08779    0.38297   1.00
H2       1.20116    0.39356    0.11037   1.00
H2       1.16571    0.43357    0.10081   1.00
H2       1.21374    0.44471    0.12358   1.00
H2       1.01820    0.07837    0.10008   1.00
H2       1.02229    0.08745    0.04670   1.00
H2       1.06621    0.09156    0.07838   1.00
H2       0.78889    0.37654    0.40456   1.00
H2       0.78336    0.35968    0.45588   1.00
H2       0.82819    0.38632    0.44074   1.00
H2       0.89307    0.09330    0.37255   1.00
H2       0.92598    0.05771    0.39701   1.00
H2       0.93266    0.11097    0.40526   1.00
C5       0.79855    -0.13218   0.36712   1.00
H2       0.77000    -0.14745   0.36825   1.00
H2       0.79818    -0.11090   0.39157   1.00
C5       0.83172    -0.16194   0.37276   1.00
C5       0.83761    -0.17123   0.41631   1.00
H2       0.85944    -0.15015   0.36060   1.00
O3       0.81909    0.02000    0.23445   1.00
C4       0.74960    -0.02100   0.24986   1.00
C3c      0.75660    -0.04243   0.28408   1.00
H1       0.76204    -0.02725   0.31119   1.00
C3d      0.74203    -0.04135   0.21496   1.00
C3       0.75728    -0.08354   0.28385   1.00
O2       0.75956    -0.10248   0.31919   1.00
C3       0.74342    -0.08227   0.21447   1.00
H1       0.73881    -0.09657   0.18674   1.00
C2       0.75088    -0.10439   0.24872   1.00
C5       0.82825    0.02121    0.19430   1.00
H2       0.83251    0.05162    0.18357   1.00
H2       0.80477    0.00734    0.17650   1.00
C5       0.86617    -0.00129   0.18844   1.00
H2       0.86226    -0.03137   0.20017   1.00
H2       0.88948    0.01302    0.20605   1.00
C5       0.87762    -0.00262   0.14502   1.00
H2       0.88131    0.02732    0.13305   1.00
H2       0.85500    -0.01811   0.12762   1.00
C5       0.91657    -0.02445   0.14005   1.00
C5       0.69846    -0.01105   0.17479   1.00
C5       0.79898    -0.11070   0.32816   1.00
H2       0.68855    0.00912    0.19820   1.00
H2       0.67896    -0.03712   0.17452   1.00
H2       0.81590    -0.08300   0.33073   1.00
H2       0.81347    -0.12895   0.30529   1.00
H2       0.82478    -0.19030   0.35819   1.00
H2       0.65513    0.05753    0.15174   1.00
H2       0.63120    0.01237    0.13754   1.00
C2       0.75153    0.10395    0.24780   1.00
C3       0.71684    0.08403    0.25764   1.00
O2       0.68148    0.10326    0.25709   1.00
C3       0.78561    0.08174    0.24067   1.00
H1       0.81286    0.09615    0.23407   1.00
C3a      0.71667    0.04287    0.25912   1.00
H1       0.68938    0.02798    0.26450   1.00
C3b      0.78504    0.04078    0.24095   1.00
C4       0.75040    0.02100    0.25014   1.00
O3       0.73791    -0.02167   0.17994   1.00
C5       0.66986    0.11280    0.29542   1.00
H2       0.66678    0.08609    0.31384   1.00
C5       0.63047    0.13326    0.29239   1.00
H2       0.69137    0.13274    0.30949   1.00
H2       0.60742    0.11068    0.28857   1.00
H2       0.63076    0.15093    0.26511   1.00
C5       0.62141    0.15918    0.32794   1.00
H2       0.62429    0.14176    0.35514   1.00
C5       0.57961    0.17547    0.32556   1.00
H2       0.64141    0.18493    0.32931   1.00
C5       0.69521    0.00983    0.13564   1.00
H2       0.69856    -0.01215   0.11193   1.00
H2       0.72019    0.03048    0.13301   1.00
C5       0.65636    0.03200    0.13154   1.00
C5       0.65205    0.04775    0.08969   1.00
H2       0.81439    -0.19286   0.42627   1.00
C5       0.87836    -0.18912   0.42244   1.00
H2       0.83502    -0.14323   0.43407   1.00
C5       0.92329    -0.03337   0.09653   1.00
H2       0.94142    -0.00551   0.15145   1.00
H2       0.91558    -0.05293   0.15718   1.00
C5       0.56892    0.19503    0.36456   1.00
H2       0.57783    0.19789    0.30106   1.00
H2       0.55837    0.15063    0.31942   1.00
H2       0.67976    0.06398    0.08105   1.00
H2       0.64707    0.02239    0.06876   1.00
C5       0.61703    0.07583    0.08779   1.00
H2       0.88963    -0.20116   0.39356   1.00
H2       0.89919    -0.16571   0.43357   1.00
H2       0.87642    -0.21374   0.44471   1.00
H2       0.89992    -0.01820   0.07837   1.00
H2       0.95330    -0.02229   0.08745   1.00
H2       0.92162    -0.06621   0.09156   1.00
H2       0.59544    0.21111    0.37654   1.00
H2       0.54412    0.21664    0.35968   1.00
H2       0.55926    0.17181    0.38632   1.00
H2       0.62745    0.10693    0.09330   1.00
H2       0.60299    0.07402    0.05771   1.00
H2       0.59474    0.06734    0.11097   1.00
C5       0.86712    0.29855    -0.13218   1.00
H2       0.86825    0.27000    -0.14745   1.00
H2       0.89157    0.29818    -0.11090   1.00
C5       0.87276    0.33172    -0.16194   1.00
C5       0.91631    0.33761    -0.17123   1.00
H2       0.86060    0.35944    -0.15015   1.00
O3       0.73445    0.31909    0.02000   1.00
C4       0.74986    0.24960    -0.02100   1.00
C3c      0.78408    0.25660    -0.04243   1.00
H1       0.81119    0.26204    -0.02725   1.00
C3d      0.71496    0.24203    -0.04135   1.00
C3       0.78385    0.25728    -0.08354   1.00
O2       0.81919    0.25956    -0.10248   1.00
C3       0.71447    0.24342    -0.08227   1.00
H1       0.68674    0.23881    -0.09657   1.00
C2       0.74872    0.25088    -0.10439   1.00
C5       0.69430    0.32825    0.02121   1.00
H2       0.68357    0.33251    0.05162   1.00
H2       0.67650    0.30477    0.00734   1.00
C5       0.68844    0.36617    -0.00129   1.00
H2       0.70017    0.36226    -0.03137   1.00
H2       0.70605    0.38948    0.01302   1.00
C5       0.64502    0.37762    -0.00262   1.00
H2       0.63305    0.38131    0.02732   1.00
H2       0.62762    0.35500    -0.01811   1.00
C5       0.64005    0.41657    -0.02445   1.00
C5       0.67479    0.19846    -0.01105   1.00
C5       0.82816    0.29898    -0.11070   1.00
H2       0.69820    0.18855    0.00912   1.00
H2       0.67452    0.17896    -0.03712   1.00
H2       0.83073    0.31590    -0.08300   1.00
H2       0.80529    0.31347    -0.12895   1.00
H2       0.85819    0.32478    -0.19030   1.00
H2       0.65174    0.15513    0.05753   1.00
H2       0.63754    0.13120    0.01237   1.00
C2       0.74780    0.25153    0.10395   1.00
C3       0.75764    0.21684    0.08403   1.00
O2       0.75709    0.18148    0.10326   1.00
C3       0.74067    0.28561    0.08174   1.00
H1       0.73407    0.31286    0.09615   1.00
C3a      0.75912    0.21667    0.04287   1.00
H1       0.76450    0.18938    0.02798   1.00
C3b      0.74095    0.28504    0.04078   1.00
C4       0.75014    0.25040    0.02100   1.00
O3       0.67994    0.23791    -0.02167   1.00
C5       0.79542    0.16986    0.11280   1.00
H2       0.81384    0.16678    0.08609   1.00
C5       0.79239    0.13047    0.13326   1.00
H2       0.80949    0.19137    0.13274   1.00
H2       0.78857    0.10742    0.11068   1.00
H2       0.76511    0.13076    0.15093   1.00
C5       0.82794    0.12141    0.15918   1.00
H2       0.85514    0.12429    0.14176   1.00
C5       0.82556    0.07961    0.17547   1.00
H2       0.82931    0.14141    0.18493   1.00
C5       0.63564    0.19521    0.00983   1.00
H2       0.61193    0.19856    -0.01215   1.00
H2       0.63301    0.22019    0.03048   1.00
C5       0.63154    0.15636    0.03200   1.00
C5       0.58969    0.15205    0.04775   1.00
H2       0.92627    0.31439    -0.19286   1.00
C5       0.92244    0.37836    -0.18912   1.00
H2       0.93407    0.33502    -0.14323   1.00
C5       0.59653    0.42329    -0.03337   1.00
H2       0.65145    0.44142    -0.00551   1.00
H2       0.65718    0.41558    -0.05293   1.00
C5       0.86456    0.06892    0.19503   1.00
H2       0.80106    0.07783    0.19789   1.00
H2       0.81942    0.05837    0.15063   1.00
H2       0.58105    0.17976    0.06398   1.00
H2       0.56876    0.14707    0.02239   1.00
C5       0.58779    0.11703    0.07583   1.00
H2       0.89356    0.38963    -0.20116   1.00
H2       0.93357    0.39919    -0.16571   1.00
H2       0.94471    0.37642    -0.21374   1.00
H2       0.57837    0.39992    -0.01820   1.00
H2       0.58745    0.45330    -0.02229   1.00
H2       0.59156    0.42162    -0.06621   1.00
H2       0.87654    0.09544    0.21111   1.00
H2       0.85968    0.04412    0.21664   1.00
H2       0.88632    0.05926    0.17181   1.00
H2       0.59330    0.12745    0.10693   1.00
H2       0.55771    0.10299    0.07402   1.00
H2       0.61097    0.09474    0.06734   1.00
