data_IRMOF10_SG202_Ligand1_label_f.

_audit_creation_method             'generated by an auxiliary program of Tobunporous'

_symmetry_space_group_name_H-M     'P 1'
_symmetry_Int_Tables_number        1
_symmetry_cell_setting             triclinic

_cell_length_a                    34.2800
_cell_length_b                    34.2800
_cell_length_c                    34.2800
_cell_angle_alpha                 90.0000
_cell_angle_beta                  90.0000
_cell_angle_gamma                 90.0000

loop_
_atom_site_label
_atom_site_fract_x
_atom_site_fract_y
_atom_site_fract_z
_atom_site_occupancy
O1       0.75000    0.75000    0.75000   1.00
Zn1      0.71720    0.78280    0.78280   1.00
Zn1      0.78280    0.71720    0.78280   1.00
Zn1      0.78280    0.78280    0.71720   1.00
Zn1      0.71720    0.71720    0.71720   1.00
O2       0.72650    0.77350    0.83820   1.00
O2       0.72650    0.83820    0.77350   1.00
O2       0.66180    0.77350    0.77350   1.00
O2       0.77350    0.72650    0.83820   1.00
O2       0.83820    0.72650    0.77350   1.00
O2       0.77350    0.66180    0.77350   1.00
O2       0.77350    0.83820    0.72650   1.00
O2       0.83820    0.77350    0.72650   1.00
O2       0.77350    0.77350    0.66180   1.00
O2       0.66180    0.72650    0.72650   1.00
O2       0.72650    0.66180    0.72650   1.00
O2       0.72650    0.72650    0.66180   1.00
C1       0.75000    0.75000    0.85520   1.00
C1       0.75000    0.85520    0.75000   1.00
C1       0.64480    0.75000    0.75000   1.00
C1       0.85520    0.75000    0.75000   1.00
C1       0.75000    0.64480    0.75000   1.00
C1       0.75000    0.75000    0.64480   1.00
O1       0.25000    0.25000    0.75000   1.00
Zn1      0.21720    0.28280    0.78280   1.00
Zn1      0.28280    0.21720    0.78280   1.00
Zn1      0.28280    0.28280    0.71720   1.00
Zn1      0.21720    0.21720    0.71720   1.00
O2       0.22650    0.27350    0.83820   1.00
O2       0.22650    0.33820    0.77350   1.00
O2       0.16180    0.27350    0.77350   1.00
O2       0.27350    0.22650    0.83820   1.00
O2       0.33820    0.22650    0.77350   1.00
O2       0.27350    0.16180    0.77350   1.00
O2       0.27350    0.33820    0.72650   1.00
O2       0.33820    0.27350    0.72650   1.00
O2       0.27350    0.27350    0.66180   1.00
O2       0.16180    0.22650    0.72650   1.00
O2       0.22650    0.16180    0.72650   1.00
O2       0.22650    0.22650    0.66180   1.00
C1       0.25000    0.25000    0.85520   1.00
C1       0.25000    0.35520    0.75000   1.00
C1       0.14480    0.25000    0.75000   1.00
C1       0.35520    0.25000    0.75000   1.00
C1       0.25000    0.14480    0.75000   1.00
C1       0.25000    0.25000    0.64480   1.00
O1       0.25000    0.75000    0.25000   1.00
Zn1      0.21720    0.78280    0.28280   1.00
Zn1      0.28280    0.71720    0.28280   1.00
Zn1      0.28280    0.78280    0.21720   1.00
Zn1      0.21720    0.71720    0.21720   1.00
O2       0.22650    0.77350    0.33820   1.00
O2       0.22650    0.83820    0.27350   1.00
O2       0.16180    0.77350    0.27350   1.00
O2       0.27350    0.72650    0.33820   1.00
O2       0.33820    0.72650    0.27350   1.00
O2       0.27350    0.66180    0.27350   1.00
O2       0.27350    0.83820    0.22650   1.00
O2       0.33820    0.77350    0.22650   1.00
O2       0.27350    0.77350    0.16180   1.00
O2       0.16180    0.72650    0.22650   1.00
O2       0.22650    0.66180    0.22650   1.00
O2       0.22650    0.72650    0.16180   1.00
C1       0.25000    0.75000    0.35520   1.00
C1       0.25000    0.85520    0.25000   1.00
C1       0.14480    0.75000    0.25000   1.00
C1       0.35520    0.75000    0.25000   1.00
C1       0.25000    0.64480    0.25000   1.00
C1       0.25000    0.75000    0.14480   1.00
O1       0.75000    0.25000    0.25000   1.00
Zn1      0.71720    0.28280    0.28280   1.00
Zn1      0.78280    0.21720    0.28280   1.00
Zn1      0.78280    0.28280    0.21720   1.00
Zn1      0.71720    0.21720    0.21720   1.00
O2       0.72650    0.27350    0.33820   1.00
O2       0.72650    0.33820    0.27350   1.00
O2       0.66180    0.27350    0.27350   1.00
O2       0.77350    0.22650    0.33820   1.00
O2       0.83820    0.22650    0.27350   1.00
O2       0.77350    0.16180    0.27350   1.00
O2       0.77350    0.33820    0.22650   1.00
O2       0.83820    0.27350    0.22650   1.00
O2       0.77350    0.27350    0.16180   1.00
O2       0.66180    0.22650    0.22650   1.00
O2       0.72650    0.16180    0.22650   1.00
O2       0.72650    0.22650    0.16180   1.00
C1       0.75000    0.25000    0.35520   1.00
C1       0.75000    0.35520    0.25000   1.00
C1       0.64480    0.25000    0.25000   1.00
C1       0.85520    0.25000    0.25000   1.00
C1       0.75000    0.14480    0.25000   1.00
C1       0.75000    0.25000    0.14480   1.00
O1       0.25000    0.25000    0.25000   1.00
Zn1      0.28280    0.21720    0.21720   1.00
Zn1      0.21720    0.28280    0.21720   1.00
Zn1      0.21720    0.21720    0.28280   1.00
Zn1      0.28280    0.28280    0.28280   1.00
O2       0.27350    0.22650    0.16180   1.00
O2       0.27350    0.16180    0.22650   1.00
O2       0.33820    0.22650    0.22650   1.00
O2       0.22650    0.27350    0.16180   1.00
O2       0.16180    0.27350    0.22650   1.00
O2       0.22650    0.33820    0.22650   1.00
O2       0.22650    0.16180    0.27350   1.00
O2       0.16180    0.22650    0.27350   1.00
O2       0.22650    0.22650    0.33820   1.00
O2       0.33820    0.27350    0.27350   1.00
O2       0.27350    0.33820    0.27350   1.00
O2       0.27350    0.27350    0.33820   1.00
C1       0.25000    0.25000    0.14480   1.00
C1       0.25000    0.14480    0.25000   1.00
C1       0.35520    0.25000    0.25000   1.00
C1       0.14480    0.25000    0.25000   1.00
C1       0.25000    0.35520    0.25000   1.00
C1       0.25000    0.25000    0.35520   1.00
O1       0.75000    0.75000    0.25000   1.00
Zn1      0.78280    0.71720    0.21720   1.00
Zn1      0.71720    0.78280    0.21720   1.00
Zn1      0.71720    0.71720    0.28280   1.00
Zn1      0.78280    0.78280    0.28280   1.00
O2       0.77350    0.72650    0.16180   1.00
O2       0.77350    0.66180    0.22650   1.00
O2       0.83820    0.72650    0.22650   1.00
O2       0.72650    0.77350    0.16180   1.00
O2       0.66180    0.77350    0.22650   1.00
O2       0.72650    0.83820    0.22650   1.00
O2       0.72650    0.66180    0.27350   1.00
O2       0.66180    0.72650    0.27350   1.00
O2       0.72650    0.72650    0.33820   1.00
O2       0.83820    0.77350    0.27350   1.00
O2       0.77350    0.83820    0.27350   1.00
O2       0.77350    0.77350    0.33820   1.00
C1       0.75000    0.75000    0.14480   1.00
C1       0.75000    0.64480    0.25000   1.00
C1       0.85520    0.75000    0.25000   1.00
C1       0.64480    0.75000    0.25000   1.00
C1       0.75000    0.85520    0.25000   1.00
C1       0.75000    0.75000    0.35520   1.00
O1       0.75000    0.25000    0.75000   1.00
Zn1      0.78280    0.21720    0.71720   1.00
Zn1      0.71720    0.28280    0.71720   1.00
Zn1      0.71720    0.21720    0.78280   1.00
Zn1      0.78280    0.28280    0.78280   1.00
O2       0.77350    0.22650    0.66180   1.00
O2       0.77350    0.16180    0.72650   1.00
O2       0.83820    0.22650    0.72650   1.00
O2       0.72650    0.27350    0.66180   1.00
O2       0.66180    0.27350    0.72650   1.00
O2       0.72650    0.33820    0.72650   1.00
O2       0.72650    0.16180    0.77350   1.00
O2       0.66180    0.22650    0.77350   1.00
O2       0.72650    0.22650    0.83820   1.00
O2       0.83820    0.27350    0.77350   1.00
O2       0.77350    0.33820    0.77350   1.00
O2       0.77350    0.27350    0.83820   1.00
C1       0.75000    0.25000    0.64480   1.00
C1       0.75000    0.14480    0.75000   1.00
C1       0.85520    0.25000    0.75000   1.00
C1       0.64480    0.25000    0.75000   1.00
C1       0.75000    0.35520    0.75000   1.00
C1       0.75000    0.25000    0.85520   1.00
O1       0.25000    0.75000    0.75000   1.00
Zn1      0.28280    0.71720    0.71720   1.00
Zn1      0.21720    0.78280    0.71720   1.00
Zn1      0.21720    0.71720    0.78280   1.00
Zn1      0.28280    0.78280    0.78280   1.00
O2       0.27350    0.72650    0.66180   1.00
O2       0.27350    0.66180    0.72650   1.00
O2       0.33820    0.72650    0.72650   1.00
O2       0.22650    0.77350    0.66180   1.00
O2       0.16180    0.77350    0.72650   1.00
O2       0.22650    0.83820    0.72650   1.00
O2       0.22650    0.66180    0.77350   1.00
O2       0.16180    0.72650    0.77350   1.00
O2       0.22650    0.72650    0.83820   1.00
O2       0.33820    0.77350    0.77350   1.00
O2       0.27350    0.83820    0.77350   1.00
O2       0.27350    0.77350    0.83820   1.00
C1       0.25000    0.75000    0.64480   1.00
C1       0.25000    0.64480    0.75000   1.00
C1       0.35520    0.75000    0.75000   1.00
C1       0.14480    0.75000    0.75000   1.00
C1       0.25000    0.85520    0.75000   1.00
C1       0.25000    0.75000    0.85520   1.00
C2       0.75005    0.75299    0.89757   1.00
C3a      0.76810    0.78288    0.91884   1.00
H1       0.78207    0.80689    0.90369   1.00
C3a      0.73198    0.72191    0.91704   1.00
H1       0.71804    0.69882    0.90051   1.00
C3b      0.76828    0.78203    0.95938   1.00
C5       0.78795    0.81464    0.98144   1.00
H2       0.81179    0.80277    0.99984   1.00
H2       0.80075    0.83682    0.96161   1.00
H2       0.76655    0.82955    1.00060   1.00
C3b      0.73176    0.72039    0.95756   1.00
C5       0.71207    0.68655    0.97767   1.00
H2       0.68821    0.69733    0.99670   1.00
H2       0.69929    0.66556    0.95655   1.00
H2       0.73345    0.67055    0.99594   1.00
C4       0.75001    0.75062    0.97873   1.00
C4       0.74999    0.74938    1.02127   1.00
C3b      0.78081    0.73054    1.04101   1.00
C5       0.81406    0.71148    1.01937   1.00
H2       0.82954    0.73340    1.00129   1.00
H2       0.83564    0.69809    1.03949   1.00
H2       0.80275    0.68819    0.99995   1.00
C3b      0.71914    0.76704    1.04204   1.00
C5       0.68592    0.78733    1.02152   1.00
H2       0.67046    0.76649    1.00217   1.00
H2       0.66431    0.79952    1.04235   1.00
H2       0.69725    0.81171    1.00350   1.00
C3a      0.78045    0.72955    1.08155   1.00
H1       0.80401    0.71514    1.09700   1.00
C3a      0.71946    0.76566    1.08257   1.00
H1       0.69589    0.77914    1.09881   1.00
C2       0.74995    0.74701    1.10243   1.00
C2       0.75299    0.89757    0.75005   1.00
C3a      0.78288    0.91884    0.76810   1.00
H1       0.80689    0.90369    0.78207   1.00
C3a      0.72191    0.91704    0.73198   1.00
H1       0.69882    0.90051    0.71804   1.00
C3b      0.78203    0.95938    0.76828   1.00
C5       0.81464    0.98144    0.78795   1.00
H2       0.80277    0.99984    0.81179   1.00
H2       0.83682    0.96161    0.80075   1.00
H2       0.82955    1.00060    0.76655   1.00
C3b      0.72039    0.95756    0.73176   1.00
C5       0.68655    0.97767    0.71207   1.00
H2       0.69733    0.99670    0.68821   1.00
H2       0.66556    0.95655    0.69929   1.00
H2       0.67055    0.99594    0.73345   1.00
C4       0.75062    0.97873    0.75001   1.00
C4       0.74938    1.02127    0.74999   1.00
C3b      0.73054    1.04101    0.78081   1.00
C5       0.71148    1.01937    0.81406   1.00
H2       0.73340    1.00129    0.82954   1.00
H2       0.69809    1.03949    0.83564   1.00
H2       0.68819    0.99995    0.80275   1.00
C3b      0.76704    1.04204    0.71914   1.00
C5       0.78733    1.02152    0.68592   1.00
H2       0.76649    1.00217    0.67046   1.00
H2       0.79952    1.04235    0.66431   1.00
H2       0.81171    1.00350    0.69725   1.00
C3a      0.72955    1.08155    0.78045   1.00
H1       0.71514    1.09700    0.80401   1.00
C3a      0.76566    1.08257    0.71946   1.00
H1       0.77914    1.09881    0.69589   1.00
C2       0.74701    1.10243    0.74995   1.00
C2       0.60243    0.75005    0.74701   1.00
C3a      0.58116    0.76810    0.71712   1.00
H1       0.59631    0.78207    0.69311   1.00
C3a      0.58296    0.73198    0.77809   1.00
H1       0.59949    0.71804    0.80118   1.00
C3b      0.54062    0.76828    0.71797   1.00
C5       0.51856    0.78795    0.68536   1.00
H2       0.50016    0.81179    0.69723   1.00
H2       0.53839    0.80075    0.66318   1.00
H2       0.49940    0.76655    0.67045   1.00
C3b      0.54244    0.73176    0.77961   1.00
C5       0.52233    0.71207    0.81345   1.00
H2       0.50330    0.68821    0.80267   1.00
H2       0.54345    0.69929    0.83444   1.00
H2       0.50406    0.73345    0.82945   1.00
C4       0.52127    0.75001    0.74938   1.00
C4       0.47873    0.74999    0.75062   1.00
C3b      0.45899    0.78081    0.76946   1.00
C5       0.48063    0.81406    0.78852   1.00
H2       0.49871    0.82954    0.76660   1.00
H2       0.46051    0.83564    0.80191   1.00
H2       0.50005    0.80275    0.81181   1.00
C3b      0.45796    0.71914    0.73296   1.00
C5       0.47848    0.68592    0.71267   1.00
H2       0.49783    0.67046    0.73351   1.00
H2       0.45765    0.66431    0.70048   1.00
H2       0.49650    0.69725    0.68829   1.00
C3a      0.41845    0.78045    0.77045   1.00
H1       0.40300    0.80401    0.78486   1.00
C3a      0.41743    0.71946    0.73434   1.00
H1       0.40119    0.69589    0.72086   1.00
C2       0.39757    0.74995    0.75299   1.00
C2       0.89757    0.75005    0.75299   1.00
C3a      0.91884    0.76810    0.78288   1.00
H1       0.90369    0.78207    0.80689   1.00
C3a      0.91704    0.73198    0.72191   1.00
H1       0.90051    0.71804    0.69882   1.00
C3b      0.95938    0.76828    0.78203   1.00
C5       0.98144    0.78795    0.81464   1.00
H2       0.99984    0.81179    0.80277   1.00
H2       0.96161    0.80075    0.83682   1.00
H2       1.00060    0.76655    0.82955   1.00
C3b      0.95756    0.73176    0.72039   1.00
C5       0.97767    0.71207    0.68655   1.00
H2       0.99670    0.68821    0.69733   1.00
H2       0.95655    0.69929    0.66556   1.00
H2       0.99594    0.73345    0.67055   1.00
C4       0.97873    0.75001    0.75062   1.00
C4       1.02127    0.74999    0.74938   1.00
C3b      1.04101    0.78081    0.73054   1.00
C5       1.01937    0.81406    0.71148   1.00
H2       1.00129    0.82954    0.73340   1.00
H2       1.03949    0.83564    0.69809   1.00
H2       0.99995    0.80275    0.68819   1.00
C3b      1.04204    0.71914    0.76704   1.00
C5       1.02152    0.68592    0.78733   1.00
H2       1.00217    0.67046    0.76649   1.00
H2       1.04235    0.66431    0.79952   1.00
H2       1.00350    0.69725    0.81171   1.00
C3a      1.08155    0.78045    0.72955   1.00
H1       1.09700    0.80401    0.71514   1.00
C3a      1.08257    0.71946    0.76566   1.00
H1       1.09881    0.69589    0.77914   1.00
C2       1.10243    0.74995    0.74701   1.00
C2       0.74701    0.60243    0.75005   1.00
C3a      0.71712    0.58116    0.76810   1.00
H1       0.69311    0.59631    0.78207   1.00
C3a      0.77809    0.58296    0.73198   1.00
H1       0.80118    0.59949    0.71804   1.00
C3b      0.71797    0.54062    0.76828   1.00
C5       0.68536    0.51856    0.78795   1.00
H2       0.69723    0.50016    0.81179   1.00
H2       0.66318    0.53839    0.80075   1.00
H2       0.67045    0.49940    0.76655   1.00
C3b      0.77961    0.54244    0.73176   1.00
C5       0.81345    0.52233    0.71207   1.00
H2       0.80267    0.50330    0.68821   1.00
H2       0.83444    0.54345    0.69929   1.00
H2       0.82945    0.50406    0.73345   1.00
C4       0.74938    0.52127    0.75001   1.00
C4       0.75062    0.47873    0.74999   1.00
C3b      0.76946    0.45899    0.78081   1.00
C5       0.78852    0.48063    0.81406   1.00
H2       0.76660    0.49871    0.82954   1.00
H2       0.80191    0.46051    0.83564   1.00
H2       0.81181    0.50005    0.80275   1.00
C3b      0.73296    0.45796    0.71914   1.00
C5       0.71267    0.47848    0.68592   1.00
H2       0.73351    0.49783    0.67046   1.00
H2       0.70048    0.45765    0.66431   1.00
H2       0.68829    0.49650    0.69725   1.00
C3a      0.77045    0.41845    0.78045   1.00
H1       0.78486    0.40300    0.80401   1.00
C3a      0.73434    0.41743    0.71946   1.00
H1       0.72086    0.40119    0.69589   1.00
C2       0.75299    0.39757    0.74995   1.00
C2       0.75005    0.74701    0.60243   1.00
C3a      0.76810    0.71712    0.58116   1.00
H1       0.78207    0.69311    0.59631   1.00
C3a      0.73198    0.77809    0.58296   1.00
H1       0.71804    0.80118    0.59949   1.00
C3b      0.76828    0.71797    0.54062   1.00
C5       0.78795    0.68536    0.51856   1.00
H2       0.81179    0.69723    0.50016   1.00
H2       0.80075    0.66318    0.53839   1.00
H2       0.76655    0.67045    0.49940   1.00
C3b      0.73176    0.77961    0.54244   1.00
C5       0.71207    0.81345    0.52233   1.00
H2       0.68821    0.80267    0.50330   1.00
H2       0.69929    0.83444    0.54345   1.00
H2       0.73345    0.82945    0.50406   1.00
C4       0.75001    0.74938    0.52127   1.00
C4       0.74999    0.75062    0.47873   1.00
C3b      0.78081    0.76946    0.45899   1.00
C5       0.81406    0.78852    0.48063   1.00
H2       0.82954    0.76660    0.49871   1.00
H2       0.83564    0.80191    0.46051   1.00
H2       0.80275    0.81181    0.50005   1.00
C3b      0.71914    0.73296    0.45796   1.00
C5       0.68592    0.71267    0.47848   1.00
H2       0.67046    0.73351    0.49783   1.00
H2       0.66431    0.70048    0.45765   1.00
H2       0.69725    0.68829    0.49650   1.00
C3a      0.78045    0.77045    0.41845   1.00
H1       0.80401    0.78486    0.40300   1.00
C3a      0.71946    0.73434    0.41743   1.00
H1       0.69589    0.72086    0.40119   1.00
C2       0.74995    0.75299    0.39757   1.00
C2       0.25005    0.25299    0.89757   1.00
C3a      0.26810    0.28288    0.91884   1.00
H1       0.28207    0.30689    0.90369   1.00
C3a      0.23198    0.22191    0.91704   1.00
H1       0.21804    0.19882    0.90051   1.00
C3b      0.26828    0.28203    0.95938   1.00
C5       0.28795    0.31464    0.98144   1.00
H2       0.31179    0.30277    0.99984   1.00
H2       0.30075    0.33682    0.96161   1.00
H2       0.26655    0.32955    1.00060   1.00
C3b      0.23176    0.22039    0.95756   1.00
C5       0.21207    0.18655    0.97767   1.00
H2       0.18821    0.19733    0.99670   1.00
H2       0.19929    0.16556    0.95655   1.00
H2       0.23345    0.17055    0.99594   1.00
C4       0.25001    0.25062    0.97873   1.00
C4       0.24999    0.24938    1.02127   1.00
C3b      0.28081    0.23054    1.04101   1.00
C5       0.31406    0.21148    1.01937   1.00
H2       0.32954    0.23340    1.00129   1.00
H2       0.33564    0.19809    1.03949   1.00
H2       0.30275    0.18819    0.99995   1.00
C3b      0.21914    0.26704    1.04204   1.00
C5       0.18592    0.28733    1.02152   1.00
H2       0.17046    0.26649    1.00217   1.00
H2       0.16431    0.29952    1.04235   1.00
H2       0.19725    0.31171    1.00350   1.00
C3a      0.28045    0.22955    1.08155   1.00
H1       0.30401    0.21514    1.09700   1.00
C3a      0.21946    0.26566    1.08257   1.00
H1       0.19589    0.27914    1.09881   1.00
C2       0.24995    0.24701    1.10243   1.00
C2       0.25299    0.39757    0.75005   1.00
C3a      0.28288    0.41884    0.76810   1.00
H1       0.30689    0.40369    0.78207   1.00
C3a      0.22191    0.41704    0.73198   1.00
H1       0.19882    0.40051    0.71804   1.00
C3b      0.28203    0.45938    0.76828   1.00
C5       0.31464    0.48144    0.78795   1.00
H2       0.30277    0.49984    0.81179   1.00
H2       0.33682    0.46161    0.80075   1.00
H2       0.32955    0.50060    0.76655   1.00
C3b      0.22039    0.45756    0.73176   1.00
C5       0.18655    0.47767    0.71207   1.00
H2       0.19733    0.49670    0.68821   1.00
H2       0.16556    0.45655    0.69929   1.00
H2       0.17055    0.49594    0.73345   1.00
C4       0.25062    0.47873    0.75001   1.00
C4       0.24938    0.52127    0.74999   1.00
C3b      0.23054    0.54101    0.78081   1.00
C5       0.21148    0.51937    0.81406   1.00
H2       0.23340    0.50129    0.82954   1.00
H2       0.19809    0.53949    0.83564   1.00
H2       0.18819    0.49995    0.80275   1.00
C3b      0.26704    0.54204    0.71914   1.00
C5       0.28733    0.52152    0.68592   1.00
H2       0.26649    0.50217    0.67046   1.00
H2       0.29952    0.54235    0.66431   1.00
H2       0.31171    0.50350    0.69725   1.00
C3a      0.22955    0.58155    0.78045   1.00
H1       0.21514    0.59700    0.80401   1.00
C3a      0.26566    0.58257    0.71946   1.00
H1       0.27914    0.59881    0.69589   1.00
C2       0.24701    0.60243    0.74995   1.00
C2       0.10243    0.25005    0.74701   1.00
C3a      0.08116    0.26810    0.71712   1.00
H1       0.09631    0.28207    0.69311   1.00
C3a      0.08296    0.23198    0.77809   1.00
H1       0.09949    0.21804    0.80118   1.00
C3b      0.04062    0.26828    0.71797   1.00
C5       0.01856    0.28795    0.68536   1.00
H2       0.00016    0.31179    0.69723   1.00
H2       0.03839    0.30075    0.66318   1.00
H2       -0.00060   0.26655    0.67045   1.00
C3b      0.04244    0.23176    0.77961   1.00
C5       0.02233    0.21207    0.81345   1.00
H2       0.00330    0.18821    0.80267   1.00
H2       0.04345    0.19929    0.83444   1.00
H2       0.00406    0.23345    0.82945   1.00
C4       0.02127    0.25001    0.74938   1.00
C4       -0.02127   0.24999    0.75062   1.00
C3b      -0.04101   0.28081    0.76946   1.00
C5       -0.01937   0.31406    0.78852   1.00
H2       -0.00129   0.32954    0.76660   1.00
H2       -0.03949   0.33564    0.80191   1.00
H2       0.00005    0.30275    0.81181   1.00
C3b      -0.04204   0.21914    0.73296   1.00
C5       -0.02152   0.18592    0.71267   1.00
H2       -0.00217   0.17046    0.73351   1.00
H2       -0.04235   0.16431    0.70048   1.00
H2       -0.00350   0.19725    0.68829   1.00
C3a      -0.08155   0.28045    0.77045   1.00
H1       -0.09700   0.30401    0.78486   1.00
C3a      -0.08257   0.21946    0.73434   1.00
H1       -0.09881   0.19589    0.72086   1.00
C2       -0.10243   0.24995    0.75299   1.00
C2       0.39757    0.25005    0.75299   1.00
C3a      0.41884    0.26810    0.78288   1.00
H1       0.40369    0.28207    0.80689   1.00
C3a      0.41704    0.23198    0.72191   1.00
H1       0.40051    0.21804    0.69882   1.00
C3b      0.45938    0.26828    0.78203   1.00
C5       0.48144    0.28795    0.81464   1.00
H2       0.49984    0.31179    0.80277   1.00
H2       0.46161    0.30075    0.83682   1.00
H2       0.50060    0.26655    0.82955   1.00
C3b      0.45756    0.23176    0.72039   1.00
C5       0.47767    0.21207    0.68655   1.00
H2       0.49670    0.18821    0.69733   1.00
H2       0.45655    0.19929    0.66556   1.00
H2       0.49594    0.23345    0.67055   1.00
C4       0.47873    0.25001    0.75062   1.00
C4       0.52127    0.24999    0.74938   1.00
C3b      0.54101    0.28081    0.73054   1.00
C5       0.51937    0.31406    0.71148   1.00
H2       0.50129    0.32954    0.73340   1.00
H2       0.53949    0.33564    0.69809   1.00
H2       0.49995    0.30275    0.68819   1.00
C3b      0.54204    0.21914    0.76704   1.00
C5       0.52152    0.18592    0.78733   1.00
H2       0.50217    0.17046    0.76649   1.00
H2       0.54235    0.16431    0.79952   1.00
H2       0.50350    0.19725    0.81171   1.00
C3a      0.58155    0.28045    0.72955   1.00
H1       0.59700    0.30401    0.71514   1.00
C3a      0.58257    0.21946    0.76566   1.00
H1       0.59881    0.19589    0.77914   1.00
C2       0.60243    0.24995    0.74701   1.00
C2       0.24701    0.10243    0.75005   1.00
C3a      0.21712    0.08116    0.76810   1.00
H1       0.19311    0.09631    0.78207   1.00
C3a      0.27809    0.08296    0.73198   1.00
H1       0.30118    0.09949    0.71804   1.00
C3b      0.21797    0.04062    0.76828   1.00
C5       0.18536    0.01856    0.78795   1.00
H2       0.19723    0.00016    0.81179   1.00
H2       0.16318    0.03839    0.80075   1.00
H2       0.17045    -0.00060   0.76655   1.00
C3b      0.27961    0.04244    0.73176   1.00
C5       0.31345    0.02233    0.71207   1.00
H2       0.30267    0.00330    0.68821   1.00
H2       0.33444    0.04345    0.69929   1.00
H2       0.32945    0.00406    0.73345   1.00
C4       0.24938    0.02127    0.75001   1.00
C4       0.25062    -0.02127   0.74999   1.00
C3b      0.26946    -0.04101   0.78081   1.00
C5       0.28852    -0.01937   0.81406   1.00
H2       0.26660    -0.00129   0.82954   1.00
H2       0.30191    -0.03949   0.83564   1.00
H2       0.31181    0.00005    0.80275   1.00
C3b      0.23296    -0.04204   0.71914   1.00
C5       0.21267    -0.02152   0.68592   1.00
H2       0.23351    -0.00217   0.67046   1.00
H2       0.20048    -0.04235   0.66431   1.00
H2       0.18829    -0.00350   0.69725   1.00
C3a      0.27045    -0.08155   0.78045   1.00
H1       0.28486    -0.09700   0.80401   1.00
C3a      0.23434    -0.08257   0.71946   1.00
H1       0.22086    -0.09881   0.69589   1.00
C2       0.25299    -0.10243   0.74995   1.00
C2       0.25005    0.24701    0.60243   1.00
C3a      0.26810    0.21712    0.58116   1.00
H1       0.28207    0.19311    0.59631   1.00
C3a      0.23198    0.27809    0.58296   1.00
H1       0.21804    0.30118    0.59949   1.00
C3b      0.26828    0.21797    0.54062   1.00
C5       0.28795    0.18536    0.51856   1.00
H2       0.31179    0.19723    0.50016   1.00
H2       0.30075    0.16318    0.53839   1.00
H2       0.26655    0.17045    0.49940   1.00
C3b      0.23176    0.27961    0.54244   1.00
C5       0.21207    0.31345    0.52233   1.00
H2       0.18821    0.30267    0.50330   1.00
H2       0.19929    0.33444    0.54345   1.00
H2       0.23345    0.32945    0.50406   1.00
C4       0.25001    0.24938    0.52127   1.00
C4       0.24999    0.25062    0.47873   1.00
C3b      0.28081    0.26946    0.45899   1.00
C5       0.31406    0.28852    0.48063   1.00
H2       0.32954    0.26660    0.49871   1.00
H2       0.33564    0.30191    0.46051   1.00
H2       0.30275    0.31181    0.50005   1.00
C3b      0.21914    0.23296    0.45796   1.00
C5       0.18592    0.21267    0.47848   1.00
H2       0.17046    0.23351    0.49783   1.00
H2       0.16431    0.20048    0.45765   1.00
H2       0.19725    0.18829    0.49650   1.00
C3a      0.28045    0.27045    0.41845   1.00
H1       0.30401    0.28486    0.40300   1.00
C3a      0.21946    0.23434    0.41743   1.00
H1       0.19589    0.22086    0.40119   1.00
C2       0.24995    0.25299    0.39757   1.00
C2       0.25005    0.75299    0.39757   1.00
C3a      0.26810    0.78288    0.41884   1.00
H1       0.28207    0.80689    0.40369   1.00
C3a      0.23198    0.72191    0.41704   1.00
H1       0.21804    0.69882    0.40051   1.00
C3b      0.26828    0.78203    0.45938   1.00
C5       0.28795    0.81464    0.48144   1.00
H2       0.31179    0.80277    0.49984   1.00
H2       0.30075    0.83682    0.46161   1.00
H2       0.26655    0.82955    0.50060   1.00
C3b      0.23176    0.72039    0.45756   1.00
C5       0.21207    0.68655    0.47767   1.00
H2       0.18821    0.69733    0.49670   1.00
H2       0.19929    0.66556    0.45655   1.00
H2       0.23345    0.67055    0.49594   1.00
C4       0.25001    0.75062    0.47873   1.00
C4       0.24999    0.74938    0.52127   1.00
C3b      0.28081    0.73054    0.54101   1.00
C5       0.31406    0.71148    0.51937   1.00
H2       0.32954    0.73340    0.50129   1.00
H2       0.33564    0.69809    0.53949   1.00
H2       0.30275    0.68819    0.49995   1.00
C3b      0.21914    0.76704    0.54204   1.00
C5       0.18592    0.78733    0.52152   1.00
H2       0.17046    0.76649    0.50217   1.00
H2       0.16431    0.79952    0.54235   1.00
H2       0.19725    0.81171    0.50350   1.00
C3a      0.28045    0.72955    0.58155   1.00
H1       0.30401    0.71514    0.59700   1.00
C3a      0.21946    0.76566    0.58257   1.00
H1       0.19589    0.77914    0.59881   1.00
C2       0.24995    0.74701    0.60243   1.00
C2       0.25299    0.89757    0.25005   1.00
C3a      0.28288    0.91884    0.26810   1.00
H1       0.30689    0.90369    0.28207   1.00
C3a      0.22191    0.91704    0.23198   1.00
H1       0.19882    0.90051    0.21804   1.00
C3b      0.28203    0.95938    0.26828   1.00
C5       0.31464    0.98144    0.28795   1.00
H2       0.30277    0.99984    0.31179   1.00
H2       0.33682    0.96161    0.30075   1.00
H2       0.32955    1.00060    0.26655   1.00
C3b      0.22039    0.95756    0.23176   1.00
C5       0.18655    0.97767    0.21207   1.00
H2       0.19733    0.99670    0.18821   1.00
H2       0.16556    0.95655    0.19929   1.00
H2       0.17055    0.99594    0.23345   1.00
C4       0.25062    0.97873    0.25001   1.00
C4       0.24938    1.02127    0.24999   1.00
C3b      0.23054    1.04101    0.28081   1.00
C5       0.21148    1.01937    0.31406   1.00
H2       0.23340    1.00129    0.32954   1.00
H2       0.19809    1.03949    0.33564   1.00
H2       0.18819    0.99995    0.30275   1.00
C3b      0.26704    1.04204    0.21914   1.00
C5       0.28733    1.02152    0.18592   1.00
H2       0.26649    1.00217    0.17046   1.00
H2       0.29952    1.04235    0.16431   1.00
H2       0.31171    1.00350    0.19725   1.00
C3a      0.22955    1.08155    0.28045   1.00
H1       0.21514    1.09700    0.30401   1.00
C3a      0.26566    1.08257    0.21946   1.00
H1       0.27914    1.09881    0.19589   1.00
C2       0.24701    1.10243    0.24995   1.00
C2       0.10243    0.75005    0.24701   1.00
C3a      0.08116    0.76810    0.21712   1.00
H1       0.09631    0.78207    0.19311   1.00
C3a      0.08296    0.73198    0.27809   1.00
H1       0.09949    0.71804    0.30118   1.00
C3b      0.04062    0.76828    0.21797   1.00
C5       0.01856    0.78795    0.18536   1.00
H2       0.00016    0.81179    0.19723   1.00
H2       0.03839    0.80075    0.16318   1.00
H2       -0.00060   0.76655    0.17045   1.00
C3b      0.04244    0.73176    0.27961   1.00
C5       0.02233    0.71207    0.31345   1.00
H2       0.00330    0.68821    0.30267   1.00
H2       0.04345    0.69929    0.33444   1.00
H2       0.00406    0.73345    0.32945   1.00
C4       0.02127    0.75001    0.24938   1.00
C4       -0.02127   0.74999    0.25062   1.00
C3b      -0.04101   0.78081    0.26946   1.00
C5       -0.01937   0.81406    0.28852   1.00
H2       -0.00129   0.82954    0.26660   1.00
H2       -0.03949   0.83564    0.30191   1.00
H2       0.00005    0.80275    0.31181   1.00
C3b      -0.04204   0.71914    0.23296   1.00
C5       -0.02152   0.68592    0.21267   1.00
H2       -0.00217   0.67046    0.23351   1.00
H2       -0.04235   0.66431    0.20048   1.00
H2       -0.00350   0.69725    0.18829   1.00
C3a      -0.08155   0.78045    0.27045   1.00
H1       -0.09700   0.80401    0.28486   1.00
C3a      -0.08257   0.71946    0.23434   1.00
H1       -0.09881   0.69589    0.22086   1.00
C2       -0.10243   0.74995    0.25299   1.00
C2       0.39757    0.75005    0.25299   1.00
C3a      0.41884    0.76810    0.28288   1.00
H1       0.40369    0.78207    0.30689   1.00
C3a      0.41704    0.73198    0.22191   1.00
H1       0.40051    0.71804    0.19882   1.00
C3b      0.45938    0.76828    0.28203   1.00
C5       0.48144    0.78795    0.31464   1.00
H2       0.49984    0.81179    0.30277   1.00
H2       0.46161    0.80075    0.33682   1.00
H2       0.50060    0.76655    0.32955   1.00
C3b      0.45756    0.73176    0.22039   1.00
C5       0.47767    0.71207    0.18655   1.00
H2       0.49670    0.68821    0.19733   1.00
H2       0.45655    0.69929    0.16556   1.00
H2       0.49594    0.73345    0.17055   1.00
C4       0.47873    0.75001    0.25062   1.00
C4       0.52127    0.74999    0.24938   1.00
C3b      0.54101    0.78081    0.23054   1.00
C5       0.51937    0.81406    0.21148   1.00
H2       0.50129    0.82954    0.23340   1.00
H2       0.53949    0.83564    0.19809   1.00
H2       0.49995    0.80275    0.18819   1.00
C3b      0.54204    0.71914    0.26704   1.00
C5       0.52152    0.68592    0.28733   1.00
H2       0.50217    0.67046    0.26649   1.00
H2       0.54235    0.66431    0.29952   1.00
H2       0.50350    0.69725    0.31171   1.00
C3a      0.58155    0.78045    0.22955   1.00
H1       0.59700    0.80401    0.21514   1.00
C3a      0.58257    0.71946    0.26566   1.00
H1       0.59881    0.69589    0.27914   1.00
C2       0.60243    0.74995    0.24701   1.00
C2       0.24701    0.60243    0.25005   1.00
C3a      0.21712    0.58116    0.26810   1.00
H1       0.19311    0.59631    0.28207   1.00
C3a      0.27809    0.58296    0.23198   1.00
H1       0.30118    0.59949    0.21804   1.00
C3b      0.21797    0.54062    0.26828   1.00
C5       0.18536    0.51856    0.28795   1.00
H2       0.19723    0.50016    0.31179   1.00
H2       0.16318    0.53839    0.30075   1.00
H2       0.17045    0.49940    0.26655   1.00
C3b      0.27961    0.54244    0.23176   1.00
C5       0.31345    0.52233    0.21207   1.00
H2       0.30267    0.50330    0.18821   1.00
H2       0.33444    0.54345    0.19929   1.00
H2       0.32945    0.50406    0.23345   1.00
C4       0.24938    0.52127    0.25001   1.00
C4       0.25062    0.47873    0.24999   1.00
C3b      0.26946    0.45899    0.28081   1.00
C5       0.28852    0.48063    0.31406   1.00
H2       0.26660    0.49871    0.32954   1.00
H2       0.30191    0.46051    0.33564   1.00
H2       0.31181    0.50005    0.30275   1.00
C3b      0.23296    0.45796    0.21914   1.00
C5       0.21267    0.47848    0.18592   1.00
H2       0.23351    0.49783    0.17046   1.00
H2       0.20048    0.45765    0.16431   1.00
H2       0.18829    0.49650    0.19725   1.00
C3a      0.27045    0.41845    0.28045   1.00
H1       0.28486    0.40300    0.30401   1.00
C3a      0.23434    0.41743    0.21946   1.00
H1       0.22086    0.40119    0.19589   1.00
C2       0.25299    0.39757    0.24995   1.00
C2       0.25005    0.74701    0.10243   1.00
C3a      0.26810    0.71712    0.08116   1.00
H1       0.28207    0.69311    0.09631   1.00
C3a      0.23198    0.77809    0.08296   1.00
H1       0.21804    0.80118    0.09949   1.00
C3b      0.26828    0.71797    0.04062   1.00
C5       0.28795    0.68536    0.01856   1.00
H2       0.31179    0.69723    0.00016   1.00
H2       0.30075    0.66318    0.03839   1.00
H2       0.26655    0.67045    -0.00060   1.00
C3b      0.23176    0.77961    0.04244   1.00
C5       0.21207    0.81345    0.02233   1.00
H2       0.18821    0.80267    0.00330   1.00
H2       0.19929    0.83444    0.04345   1.00
H2       0.23345    0.82945    0.00406   1.00
C4       0.25001    0.74938    0.02127   1.00
C4       0.24999    0.75062    -0.02127   1.00
C3b      0.28081    0.76946    -0.04101   1.00
C5       0.31406    0.78852    -0.01937   1.00
H2       0.32954    0.76660    -0.00129   1.00
H2       0.33564    0.80191    -0.03949   1.00
H2       0.30275    0.81181    0.00005   1.00
C3b      0.21914    0.73296    -0.04204   1.00
C5       0.18592    0.71267    -0.02152   1.00
H2       0.17046    0.73351    -0.00217   1.00
H2       0.16431    0.70048    -0.04235   1.00
H2       0.19725    0.68829    -0.00350   1.00
C3a      0.28045    0.77045    -0.08155   1.00
H1       0.30401    0.78486    -0.09700   1.00
C3a      0.21946    0.73434    -0.08257   1.00
H1       0.19589    0.72086    -0.09881   1.00
C2       0.24995    0.75299    -0.10243   1.00
C2       0.75005    0.25299    0.39757   1.00
C3a      0.76810    0.28288    0.41884   1.00
H1       0.78207    0.30689    0.40369   1.00
C3a      0.73198    0.22191    0.41704   1.00
H1       0.71804    0.19882    0.40051   1.00
C3b      0.76828    0.28203    0.45938   1.00
C5       0.78795    0.31464    0.48144   1.00
H2       0.81179    0.30277    0.49984   1.00
H2       0.80075    0.33682    0.46161   1.00
H2       0.76655    0.32955    0.50060   1.00
C3b      0.73176    0.22039    0.45756   1.00
C5       0.71207    0.18655    0.47767   1.00
H2       0.68821    0.19733    0.49670   1.00
H2       0.69929    0.16556    0.45655   1.00
H2       0.73345    0.17055    0.49594   1.00
C4       0.75001    0.25062    0.47873   1.00
C4       0.74999    0.24938    0.52127   1.00
C3b      0.78081    0.23054    0.54101   1.00
C5       0.81406    0.21148    0.51937   1.00
H2       0.82954    0.23340    0.50129   1.00
H2       0.83564    0.19809    0.53949   1.00
H2       0.80275    0.18819    0.49995   1.00
C3b      0.71914    0.26704    0.54204   1.00
C5       0.68592    0.28733    0.52152   1.00
H2       0.67046    0.26649    0.50217   1.00
H2       0.66431    0.29952    0.54235   1.00
H2       0.69725    0.31171    0.50350   1.00
C3a      0.78045    0.22955    0.58155   1.00
H1       0.80401    0.21514    0.59700   1.00
C3a      0.71946    0.26566    0.58257   1.00
H1       0.69589    0.27914    0.59881   1.00
C2       0.74995    0.24701    0.60243   1.00
C2       0.75299    0.39757    0.25005   1.00
C3a      0.78288    0.41884    0.26810   1.00
H1       0.80689    0.40369    0.28207   1.00
C3a      0.72191    0.41704    0.23198   1.00
H1       0.69882    0.40051    0.21804   1.00
C3b      0.78203    0.45938    0.26828   1.00
C5       0.81464    0.48144    0.28795   1.00
H2       0.80277    0.49984    0.31179   1.00
H2       0.83682    0.46161    0.30075   1.00
H2       0.82955    0.50060    0.26655   1.00
C3b      0.72039    0.45756    0.23176   1.00
C5       0.68655    0.47767    0.21207   1.00
H2       0.69733    0.49670    0.18821   1.00
H2       0.66556    0.45655    0.19929   1.00
H2       0.67055    0.49594    0.23345   1.00
C4       0.75062    0.47873    0.25001   1.00
C4       0.74938    0.52127    0.24999   1.00
C3b      0.73054    0.54101    0.28081   1.00
C5       0.71148    0.51937    0.31406   1.00
H2       0.73340    0.50129    0.32954   1.00
H2       0.69809    0.53949    0.33564   1.00
H2       0.68819    0.49995    0.30275   1.00
C3b      0.76704    0.54204    0.21914   1.00
C5       0.78733    0.52152    0.18592   1.00
H2       0.76649    0.50217    0.17046   1.00
H2       0.79952    0.54235    0.16431   1.00
H2       0.81171    0.50350    0.19725   1.00
C3a      0.72955    0.58155    0.28045   1.00
H1       0.71514    0.59700    0.30401   1.00
C3a      0.76566    0.58257    0.21946   1.00
H1       0.77914    0.59881    0.19589   1.00
C2       0.74701    0.60243    0.24995   1.00
C2       0.60243    0.25005    0.24701   1.00
C3a      0.58116    0.26810    0.21712   1.00
H1       0.59631    0.28207    0.19311   1.00
C3a      0.58296    0.23198    0.27809   1.00
H1       0.59949    0.21804    0.30118   1.00
C3b      0.54062    0.26828    0.21797   1.00
C5       0.51856    0.28795    0.18536   1.00
H2       0.50016    0.31179    0.19723   1.00
H2       0.53839    0.30075    0.16318   1.00
H2       0.49940    0.26655    0.17045   1.00
C3b      0.54244    0.23176    0.27961   1.00
C5       0.52233    0.21207    0.31345   1.00
H2       0.50330    0.18821    0.30267   1.00
H2       0.54345    0.19929    0.33444   1.00
H2       0.50406    0.23345    0.32945   1.00
C4       0.52127    0.25001    0.24938   1.00
C4       0.47873    0.24999    0.25062   1.00
C3b      0.45899    0.28081    0.26946   1.00
C5       0.48063    0.31406    0.28852   1.00
H2       0.49871    0.32954    0.26660   1.00
H2       0.46051    0.33564    0.30191   1.00
H2       0.50005    0.30275    0.31181   1.00
C3b      0.45796    0.21914    0.23296   1.00
C5       0.47848    0.18592    0.21267   1.00
H2       0.49783    0.17046    0.23351   1.00
H2       0.45765    0.16431    0.20048   1.00
H2       0.49650    0.19725    0.18829   1.00
C3a      0.41845    0.28045    0.27045   1.00
H1       0.40300    0.30401    0.28486   1.00
C3a      0.41743    0.21946    0.23434   1.00
H1       0.40119    0.19589    0.22086   1.00
C2       0.39757    0.24995    0.25299   1.00
C2       0.89757    0.25005    0.25299   1.00
C3a      0.91884    0.26810    0.28288   1.00
H1       0.90369    0.28207    0.30689   1.00
C3a      0.91704    0.23198    0.22191   1.00
H1       0.90051    0.21804    0.19882   1.00
C3b      0.95938    0.26828    0.28203   1.00
C5       0.98144    0.28795    0.31464   1.00
H2       0.99984    0.31179    0.30277   1.00
H2       0.96161    0.30075    0.33682   1.00
H2       1.00060    0.26655    0.32955   1.00
C3b      0.95756    0.23176    0.22039   1.00
C5       0.97767    0.21207    0.18655   1.00
H2       0.99670    0.18821    0.19733   1.00
H2       0.95655    0.19929    0.16556   1.00
H2       0.99594    0.23345    0.17055   1.00
C4       0.97873    0.25001    0.25062   1.00
C4       1.02127    0.24999    0.24938   1.00
C3b      1.04101    0.28081    0.23054   1.00
C5       1.01937    0.31406    0.21148   1.00
H2       1.00129    0.32954    0.23340   1.00
H2       1.03949    0.33564    0.19809   1.00
H2       0.99995    0.30275    0.18819   1.00
C3b      1.04204    0.21914    0.26704   1.00
C5       1.02152    0.18592    0.28733   1.00
H2       1.00217    0.17046    0.26649   1.00
H2       1.04235    0.16431    0.29952   1.00
H2       1.00350    0.19725    0.31171   1.00
C3a      1.08155    0.28045    0.22955   1.00
H1       1.09700    0.30401    0.21514   1.00
C3a      1.08257    0.21946    0.26566   1.00
H1       1.09881    0.19589    0.27914   1.00
C2       1.10243    0.24995    0.24701   1.00
C2       0.74701    0.10243    0.25005   1.00
C3a      0.71712    0.08116    0.26810   1.00
H1       0.69311    0.09631    0.28207   1.00
C3a      0.77809    0.08296    0.23198   1.00
H1       0.80118    0.09949    0.21804   1.00
C3b      0.71797    0.04062    0.26828   1.00
C5       0.68536    0.01856    0.28795   1.00
H2       0.69723    0.00016    0.31179   1.00
H2       0.66318    0.03839    0.30075   1.00
H2       0.67045    -0.00060   0.26655   1.00
C3b      0.77961    0.04244    0.23176   1.00
C5       0.81345    0.02233    0.21207   1.00
H2       0.80267    0.00330    0.18821   1.00
H2       0.83444    0.04345    0.19929   1.00
H2       0.82945    0.00406    0.23345   1.00
C4       0.74938    0.02127    0.25001   1.00
C4       0.75062    -0.02127   0.24999   1.00
C3b      0.76946    -0.04101   0.28081   1.00
C5       0.78852    -0.01937   0.31406   1.00
H2       0.76660    -0.00129   0.32954   1.00
H2       0.80191    -0.03949   0.33564   1.00
H2       0.81181    0.00005    0.30275   1.00
C3b      0.73296    -0.04204   0.21914   1.00
C5       0.71267    -0.02152   0.18592   1.00
H2       0.73351    -0.00217   0.17046   1.00
H2       0.70048    -0.04235   0.16431   1.00
H2       0.68829    -0.00350   0.19725   1.00
C3a      0.77045    -0.08155   0.28045   1.00
H1       0.78486    -0.09700   0.30401   1.00
C3a      0.73434    -0.08257   0.21946   1.00
H1       0.72086    -0.09881   0.19589   1.00
C2       0.75299    -0.10243   0.24995   1.00
C2       0.75005    0.24701    0.10243   1.00
C3a      0.76810    0.21712    0.08116   1.00
H1       0.78207    0.19311    0.09631   1.00
C3a      0.73198    0.27809    0.08296   1.00
H1       0.71804    0.30118    0.09949   1.00
C3b      0.76828    0.21797    0.04062   1.00
C5       0.78795    0.18536    0.01856   1.00
H2       0.81179    0.19723    0.00016   1.00
H2       0.80075    0.16318    0.03839   1.00
H2       0.76655    0.17045    -0.00060   1.00
C3b      0.73176    0.27961    0.04244   1.00
C5       0.71207    0.31345    0.02233   1.00
H2       0.68821    0.30267    0.00330   1.00
H2       0.69929    0.33444    0.04345   1.00
H2       0.73345    0.32945    0.00406   1.00
C4       0.75001    0.24938    0.02127   1.00
C4       0.74999    0.25062    -0.02127   1.00
C3b      0.78081    0.26946    -0.04101   1.00
C5       0.81406    0.28852    -0.01937   1.00
H2       0.82954    0.26660    -0.00129   1.00
H2       0.83564    0.30191    -0.03949   1.00
H2       0.80275    0.31181    0.00005   1.00
C3b      0.71914    0.23296    -0.04204   1.00
C5       0.68592    0.21267    -0.02152   1.00
H2       0.67046    0.23351    -0.00217   1.00
H2       0.66431    0.20048    -0.04235   1.00
H2       0.69725    0.18829    -0.00350   1.00
C3a      0.78045    0.27045    -0.08155   1.00
H1       0.80401    0.28486    -0.09700   1.00
C3a      0.71946    0.23434    -0.08257   1.00
H1       0.69589    0.22086    -0.09881   1.00
C2       0.74995    0.25299    -0.10243   1.00
