data_IRMOF10_SG202_Ligand6_label_a.

_audit_creation_method             'generated by an auxiliary program of Tobunporous'

_symmetry_space_group_name_H-M     'P 1'
_symmetry_Int_Tables_number        1
_symmetry_cell_setting             triclinic

_cell_length_a                    34.2800
_cell_length_b                    34.2800
_cell_length_c                    34.2800
_cell_angle_alpha                 90.0000
_cell_angle_beta                  90.0000
_cell_angle_gamma                 90.0000

loop_
_atom_site_label
_atom_site_fract_x
_atom_site_fract_y
_atom_site_fract_z
_atom_site_occupancy
O1       0.75000    0.75000    0.75000   1.00
Zn1      0.71720    0.78280    0.78280   1.00
Zn1      0.78280    0.71720    0.78280   1.00
Zn1      0.78280    0.78280    0.71720   1.00
Zn1      0.71720    0.71720    0.71720   1.00
O2       0.72650    0.77350    0.83820   1.00
O2       0.72650    0.83820    0.77350   1.00
O2       0.66180    0.77350    0.77350   1.00
O2       0.77350    0.72650    0.83820   1.00
O2       0.83820    0.72650    0.77350   1.00
O2       0.77350    0.66180    0.77350   1.00
O2       0.77350    0.83820    0.72650   1.00
O2       0.83820    0.77350    0.72650   1.00
O2       0.77350    0.77350    0.66180   1.00
O2       0.66180    0.72650    0.72650   1.00
O2       0.72650    0.66180    0.72650   1.00
O2       0.72650    0.72650    0.66180   1.00
C1       0.75000    0.75000    0.85520   1.00
C1       0.75000    0.85520    0.75000   1.00
C1       0.64480    0.75000    0.75000   1.00
C1       0.85520    0.75000    0.75000   1.00
C1       0.75000    0.64480    0.75000   1.00
C1       0.75000    0.75000    0.64480   1.00
O1       0.25000    0.25000    0.75000   1.00
Zn1      0.21720    0.28280    0.78280   1.00
Zn1      0.28280    0.21720    0.78280   1.00
Zn1      0.28280    0.28280    0.71720   1.00
Zn1      0.21720    0.21720    0.71720   1.00
O2       0.22650    0.27350    0.83820   1.00
O2       0.22650    0.33820    0.77350   1.00
O2       0.16180    0.27350    0.77350   1.00
O2       0.27350    0.22650    0.83820   1.00
O2       0.33820    0.22650    0.77350   1.00
O2       0.27350    0.16180    0.77350   1.00
O2       0.27350    0.33820    0.72650   1.00
O2       0.33820    0.27350    0.72650   1.00
O2       0.27350    0.27350    0.66180   1.00
O2       0.16180    0.22650    0.72650   1.00
O2       0.22650    0.16180    0.72650   1.00
O2       0.22650    0.22650    0.66180   1.00
C1       0.25000    0.25000    0.85520   1.00
C1       0.25000    0.35520    0.75000   1.00
C1       0.14480    0.25000    0.75000   1.00
C1       0.35520    0.25000    0.75000   1.00
C1       0.25000    0.14480    0.75000   1.00
C1       0.25000    0.25000    0.64480   1.00
O1       0.25000    0.75000    0.25000   1.00
Zn1      0.21720    0.78280    0.28280   1.00
Zn1      0.28280    0.71720    0.28280   1.00
Zn1      0.28280    0.78280    0.21720   1.00
Zn1      0.21720    0.71720    0.21720   1.00
O2       0.22650    0.77350    0.33820   1.00
O2       0.22650    0.83820    0.27350   1.00
O2       0.16180    0.77350    0.27350   1.00
O2       0.27350    0.72650    0.33820   1.00
O2       0.33820    0.72650    0.27350   1.00
O2       0.27350    0.66180    0.27350   1.00
O2       0.27350    0.83820    0.22650   1.00
O2       0.33820    0.77350    0.22650   1.00
O2       0.27350    0.77350    0.16180   1.00
O2       0.16180    0.72650    0.22650   1.00
O2       0.22650    0.66180    0.22650   1.00
O2       0.22650    0.72650    0.16180   1.00
C1       0.25000    0.75000    0.35520   1.00
C1       0.25000    0.85520    0.25000   1.00
C1       0.14480    0.75000    0.25000   1.00
C1       0.35520    0.75000    0.25000   1.00
C1       0.25000    0.64480    0.25000   1.00
C1       0.25000    0.75000    0.14480   1.00
O1       0.75000    0.25000    0.25000   1.00
Zn1      0.71720    0.28280    0.28280   1.00
Zn1      0.78280    0.21720    0.28280   1.00
Zn1      0.78280    0.28280    0.21720   1.00
Zn1      0.71720    0.21720    0.21720   1.00
O2       0.72650    0.27350    0.33820   1.00
O2       0.72650    0.33820    0.27350   1.00
O2       0.66180    0.27350    0.27350   1.00
O2       0.77350    0.22650    0.33820   1.00
O2       0.83820    0.22650    0.27350   1.00
O2       0.77350    0.16180    0.27350   1.00
O2       0.77350    0.33820    0.22650   1.00
O2       0.83820    0.27350    0.22650   1.00
O2       0.77350    0.27350    0.16180   1.00
O2       0.66180    0.22650    0.22650   1.00
O2       0.72650    0.16180    0.22650   1.00
O2       0.72650    0.22650    0.16180   1.00
C1       0.75000    0.25000    0.35520   1.00
C1       0.75000    0.35520    0.25000   1.00
C1       0.64480    0.25000    0.25000   1.00
C1       0.85520    0.25000    0.25000   1.00
C1       0.75000    0.14480    0.25000   1.00
C1       0.75000    0.25000    0.14480   1.00
O1       0.25000    0.25000    0.25000   1.00
Zn1      0.28280    0.21720    0.21720   1.00
Zn1      0.21720    0.28280    0.21720   1.00
Zn1      0.21720    0.21720    0.28280   1.00
Zn1      0.28280    0.28280    0.28280   1.00
O2       0.27350    0.22650    0.16180   1.00
O2       0.27350    0.16180    0.22650   1.00
O2       0.33820    0.22650    0.22650   1.00
O2       0.22650    0.27350    0.16180   1.00
O2       0.16180    0.27350    0.22650   1.00
O2       0.22650    0.33820    0.22650   1.00
O2       0.22650    0.16180    0.27350   1.00
O2       0.16180    0.22650    0.27350   1.00
O2       0.22650    0.22650    0.33820   1.00
O2       0.33820    0.27350    0.27350   1.00
O2       0.27350    0.33820    0.27350   1.00
O2       0.27350    0.27350    0.33820   1.00
C1       0.25000    0.25000    0.14480   1.00
C1       0.25000    0.14480    0.25000   1.00
C1       0.35520    0.25000    0.25000   1.00
C1       0.14480    0.25000    0.25000   1.00
C1       0.25000    0.35520    0.25000   1.00
C1       0.25000    0.25000    0.35520   1.00
O1       0.75000    0.75000    0.25000   1.00
Zn1      0.78280    0.71720    0.21720   1.00
Zn1      0.71720    0.78280    0.21720   1.00
Zn1      0.71720    0.71720    0.28280   1.00
Zn1      0.78280    0.78280    0.28280   1.00
O2       0.77350    0.72650    0.16180   1.00
O2       0.77350    0.66180    0.22650   1.00
O2       0.83820    0.72650    0.22650   1.00
O2       0.72650    0.77350    0.16180   1.00
O2       0.66180    0.77350    0.22650   1.00
O2       0.72650    0.83820    0.22650   1.00
O2       0.72650    0.66180    0.27350   1.00
O2       0.66180    0.72650    0.27350   1.00
O2       0.72650    0.72650    0.33820   1.00
O2       0.83820    0.77350    0.27350   1.00
O2       0.77350    0.83820    0.27350   1.00
O2       0.77350    0.77350    0.33820   1.00
C1       0.75000    0.75000    0.14480   1.00
C1       0.75000    0.64480    0.25000   1.00
C1       0.85520    0.75000    0.25000   1.00
C1       0.64480    0.75000    0.25000   1.00
C1       0.75000    0.85520    0.25000   1.00
C1       0.75000    0.75000    0.35520   1.00
O1       0.75000    0.25000    0.75000   1.00
Zn1      0.78280    0.21720    0.71720   1.00
Zn1      0.71720    0.28280    0.71720   1.00
Zn1      0.71720    0.21720    0.78280   1.00
Zn1      0.78280    0.28280    0.78280   1.00
O2       0.77350    0.22650    0.66180   1.00
O2       0.77350    0.16180    0.72650   1.00
O2       0.83820    0.22650    0.72650   1.00
O2       0.72650    0.27350    0.66180   1.00
O2       0.66180    0.27350    0.72650   1.00
O2       0.72650    0.33820    0.72650   1.00
O2       0.72650    0.16180    0.77350   1.00
O2       0.66180    0.22650    0.77350   1.00
O2       0.72650    0.22650    0.83820   1.00
O2       0.83820    0.27350    0.77350   1.00
O2       0.77350    0.33820    0.77350   1.00
O2       0.77350    0.27350    0.83820   1.00
C1       0.75000    0.25000    0.64480   1.00
C1       0.75000    0.14480    0.75000   1.00
C1       0.85520    0.25000    0.75000   1.00
C1       0.64480    0.25000    0.75000   1.00
C1       0.75000    0.35520    0.75000   1.00
C1       0.75000    0.25000    0.85520   1.00
O1       0.25000    0.75000    0.75000   1.00
Zn1      0.28280    0.71720    0.71720   1.00
Zn1      0.21720    0.78280    0.71720   1.00
Zn1      0.21720    0.71720    0.78280   1.00
Zn1      0.28280    0.78280    0.78280   1.00
O2       0.27350    0.72650    0.66180   1.00
O2       0.27350    0.66180    0.72650   1.00
O2       0.33820    0.72650    0.72650   1.00
O2       0.22650    0.77350    0.66180   1.00
O2       0.16180    0.77350    0.72650   1.00
O2       0.22650    0.83820    0.72650   1.00
O2       0.22650    0.66180    0.77350   1.00
O2       0.16180    0.72650    0.77350   1.00
O2       0.22650    0.72650    0.83820   1.00
O2       0.33820    0.77350    0.77350   1.00
O2       0.27350    0.83820    0.77350   1.00
O2       0.27350    0.77350    0.83820   1.00
C1       0.25000    0.75000    0.64480   1.00
C1       0.25000    0.64480    0.75000   1.00
C1       0.35520    0.75000    0.75000   1.00
C1       0.14480    0.75000    0.75000   1.00
C1       0.25000    0.85520    0.75000   1.00
C1       0.25000    0.75000    0.85520   1.00
C5       0.67285    0.85061    1.13218   1.00
H2       0.65760    0.82645    1.14745   1.00
H2       0.65150    0.86252    1.11090   1.00
C5       0.68456    0.88216    1.16194   1.00
C5       0.64978    0.90903    1.17123   1.00
H2       0.70895    0.90008    1.15015   1.00
O3       0.79801    0.80206    0.98000   1.00
C4       0.74992    0.74959    1.02100   1.00
C3c      0.72379    0.77276    1.04243   1.00
H1       0.70303    0.79102    1.02725   1.00
C3d      0.77636    0.72558    1.04135   1.00
C3       0.72433    0.77323    1.08354   1.00
O2       0.69487    0.79287    1.10248   1.00
C3       0.77748    0.72654    1.08227   1.00
H1       0.79919    0.70867    1.09657   1.00
C2       0.75155    0.75012    1.10439   1.00
C5       0.83736    0.78991    0.97879   1.00
H2       0.84879    0.78824    0.94838   1.00
H2       0.84104    0.76068    0.99266   1.00
C5       0.86140    0.81982    1.00129   1.00
H2       0.84929    0.82230    1.03137   1.00
H2       0.85781    0.84881    0.98698   1.00
C5       0.90473    0.80802    1.00262   1.00
H2       0.91694    0.80523    0.97268   1.00
H2       0.90849    0.77973    1.01811   1.00
C5       0.92851    0.83927    1.02445   1.00
C5       0.78936    0.66776    1.01105   1.00
C5       0.70681    0.83150    1.11070   1.00
H2       0.76413    0.67088    0.99088   1.00
H2       0.77984    0.65074    1.03712   1.00
H2       0.71305    0.84744    1.08300   1.00
H2       0.73386    0.83261    1.12895   1.00
H2       0.69371    0.86886    1.19030   1.00
H2       0.78765    0.61871    0.94247   1.00
H2       0.78799    0.59088    0.98763   1.00
C2       0.75267    0.75023    0.89605   1.00
C3       0.72680    0.72511    0.91597   1.00
O2       0.70959    0.69421    0.89674   1.00
C3       0.77588    0.77617    0.91826   1.00
H1       0.79523    0.79647    0.90385   1.00
C3a      0.72544    0.72570    0.95713   1.00
H1       0.70713    0.70475    0.97202   1.00
C3b      0.77536    0.77582    0.95922   1.00
C4       0.75008    0.75041    0.97900   1.00
O3       0.80463    0.70449    1.02167   1.00
C5       0.67059    0.70331    0.88720   1.00
H2       0.65310    0.70986    0.91391   1.00
C5       0.65352    0.66769    0.86674   1.00
H2       0.66916    0.72897    0.86726   1.00
H2       0.64530    0.64581    0.88932   1.00
H2       0.67729    0.65429    0.84907   1.00
C5       0.61820    0.67762    0.84082   1.00
H2       0.59609    0.69371    0.85824   1.00
C5       0.59937    0.64023    0.82453   1.00
H2       0.62702    0.69562    0.81507   1.00
C5       0.82164    0.64537    0.99017   1.00
H2       0.84385    0.63641    1.01215   1.00
H2       0.83641    0.66568    0.96952   1.00
C5       0.80576    0.60967    0.96800   1.00
C5       0.83984    0.58501    0.95225   1.00
H2       0.62955    0.89391    1.19286   1.00
H2       0.66094    0.93742    1.18447   1.00
H2       0.63311    0.91567    1.14323   1.00
H2       0.95890    0.82747    1.03105   1.00
H2       0.93107    0.86649    1.00551   1.00
H2       0.91318    0.84698    1.05293   1.00
H2       0.58788    0.64605    0.79387   1.00
H2       0.62207    0.61595    0.82344   1.00
H2       0.57421    0.63100    0.84423   1.00
H2       0.86836    0.60163    0.95634   1.00
H2       0.84130    0.55623    0.96884   1.00
H2       0.83510    0.57893    0.91990   1.00
C5       0.85061    1.13218    0.67285   1.00
H2       0.82645    1.14745    0.65760   1.00
H2       0.86252    1.11090    0.65150   1.00
C5       0.88216    1.16194    0.68456   1.00
C5       0.90903    1.17123    0.64978   1.00
H2       0.90008    1.15015    0.70895   1.00
O3       0.80206    0.98000    0.79801   1.00
C4       0.74959    1.02100    0.74992   1.00
C3c      0.77276    1.04243    0.72379   1.00
H1       0.79102    1.02725    0.70303   1.00
C3d      0.72558    1.04135    0.77636   1.00
C3       0.77323    1.08354    0.72433   1.00
O2       0.79287    1.10248    0.69487   1.00
C3       0.72654    1.08227    0.77748   1.00
H1       0.70867    1.09657    0.79919   1.00
C2       0.75012    1.10439    0.75155   1.00
C5       0.78991    0.97879    0.83736   1.00
H2       0.78824    0.94838    0.84879   1.00
H2       0.76068    0.99266    0.84104   1.00
C5       0.81982    1.00129    0.86140   1.00
H2       0.82230    1.03137    0.84929   1.00
H2       0.84881    0.98698    0.85781   1.00
C5       0.80802    1.00262    0.90473   1.00
H2       0.80523    0.97268    0.91694   1.00
H2       0.77973    1.01811    0.90849   1.00
C5       0.83927    1.02445    0.92851   1.00
C5       0.66776    1.01105    0.78936   1.00
C5       0.83150    1.11070    0.70681   1.00
H2       0.67088    0.99088    0.76413   1.00
H2       0.65074    1.03712    0.77984   1.00
H2       0.84744    1.08300    0.71305   1.00
H2       0.83261    1.12895    0.73386   1.00
H2       0.86886    1.19030    0.69371   1.00
H2       0.61871    0.94247    0.78765   1.00
H2       0.59088    0.98763    0.78799   1.00
C2       0.75023    0.89605    0.75267   1.00
C3       0.72511    0.91597    0.72680   1.00
O2       0.69421    0.89674    0.70959   1.00
C3       0.77617    0.91826    0.77588   1.00
H1       0.79647    0.90385    0.79523   1.00
C3a      0.72570    0.95713    0.72544   1.00
H1       0.70475    0.97202    0.70713   1.00
C3b      0.77582    0.95922    0.77536   1.00
C4       0.75041    0.97900    0.75008   1.00
O3       0.70449    1.02167    0.80463   1.00
C5       0.70331    0.88720    0.67059   1.00
H2       0.70986    0.91391    0.65310   1.00
C5       0.66769    0.86674    0.65352   1.00
H2       0.72897    0.86726    0.66916   1.00
H2       0.64581    0.88932    0.64530   1.00
H2       0.65429    0.84907    0.67729   1.00
C5       0.67762    0.84082    0.61820   1.00
H2       0.69371    0.85824    0.59609   1.00
C5       0.64023    0.82453    0.59937   1.00
H2       0.69562    0.81507    0.62702   1.00
C5       0.64537    0.99017    0.82164   1.00
H2       0.63641    1.01215    0.84385   1.00
H2       0.66568    0.96952    0.83641   1.00
C5       0.60967    0.96800    0.80576   1.00
C5       0.58501    0.95225    0.83984   1.00
H2       0.89391    1.19286    0.62955   1.00
H2       0.93742    1.18447    0.66094   1.00
H2       0.91567    1.14323    0.63311   1.00
H2       0.82747    1.03105    0.95890   1.00
H2       0.86649    1.00551    0.93107   1.00
H2       0.84698    1.05293    0.91318   1.00
H2       0.64605    0.79387    0.58788   1.00
H2       0.61595    0.82344    0.62207   1.00
H2       0.63100    0.84423    0.57421   1.00
H2       0.60163    0.95634    0.86836   1.00
H2       0.55623    0.96884    0.84130   1.00
H2       0.57893    0.91990    0.83510   1.00
C5       0.36782    0.67285    0.64939   1.00
H2       0.35255    0.65760    0.67355   1.00
H2       0.38910    0.65150    0.63748   1.00
C5       0.33806    0.68456    0.61784   1.00
C5       0.32877    0.64978    0.59097   1.00
H2       0.34985    0.70895    0.59992   1.00
O3       0.52000    0.79801    0.69794   1.00
C4       0.47900    0.74992    0.75041   1.00
C3c      0.45757    0.72379    0.72724   1.00
H1       0.47275    0.70303    0.70898   1.00
C3d      0.45865    0.77636    0.77442   1.00
C3       0.41646    0.72433    0.72677   1.00
O2       0.39752    0.69487    0.70713   1.00
C3       0.41773    0.77748    0.77346   1.00
H1       0.40343    0.79919    0.79133   1.00
C2       0.39561    0.75155    0.74988   1.00
C5       0.52121    0.83736    0.71009   1.00
H2       0.55162    0.84879    0.71176   1.00
H2       0.50734    0.84104    0.73932   1.00
C5       0.49871    0.86140    0.68018   1.00
H2       0.46863    0.84929    0.67770   1.00
H2       0.51302    0.85781    0.65119   1.00
C5       0.49738    0.90473    0.69198   1.00
H2       0.52732    0.91694    0.69477   1.00
H2       0.48189    0.90849    0.72027   1.00
C5       0.47555    0.92851    0.66073   1.00
C5       0.48895    0.78936    0.83224   1.00
C5       0.38930    0.70681    0.66850   1.00
H2       0.50912    0.76413    0.82912   1.00
H2       0.46288    0.77984    0.84926   1.00
H2       0.41700    0.71305    0.65256   1.00
H2       0.37105    0.73386    0.66739   1.00
H2       0.30970    0.69371    0.63114   1.00
H2       0.55753    0.78765    0.88129   1.00
H2       0.51237    0.78799    0.90912   1.00
C2       0.60395    0.75267    0.74977   1.00
C3       0.58403    0.72680    0.77489   1.00
O2       0.60326    0.70959    0.80579   1.00
C3       0.58174    0.77588    0.72383   1.00
H1       0.59615    0.79523    0.70353   1.00
C3a      0.54287    0.72544    0.77430   1.00
H1       0.52798    0.70713    0.79525   1.00
C3b      0.54078    0.77536    0.72418   1.00
C4       0.52100    0.75008    0.74959   1.00
O3       0.47833    0.80463    0.79551   1.00
C5       0.61280    0.67059    0.79669   1.00
H2       0.58609    0.65310    0.79014   1.00
C5       0.63326    0.65352    0.83231   1.00
H2       0.63274    0.66916    0.77103   1.00
H2       0.61068    0.64530    0.85419   1.00
H2       0.65093    0.67729    0.84571   1.00
C5       0.65918    0.61820    0.82238   1.00
H2       0.64176    0.59609    0.80629   1.00
C5       0.67547    0.59937    0.85977   1.00
H2       0.68493    0.62702    0.80438   1.00
C5       0.50983    0.82164    0.85463   1.00
H2       0.48785    0.84385    0.86359   1.00
H2       0.53048    0.83641    0.83432   1.00
C5       0.53200    0.80576    0.89033   1.00
C5       0.54775    0.83984    0.91499   1.00
H2       0.30714    0.62955    0.60609   1.00
H2       0.31553    0.66094    0.56258   1.00
H2       0.35677    0.63311    0.58433   1.00
H2       0.46895    0.95890    0.67253   1.00
H2       0.49449    0.93107    0.63351   1.00
H2       0.44707    0.91318    0.65302   1.00
H2       0.70613    0.58788    0.85395   1.00
H2       0.67656    0.62207    0.88405   1.00
H2       0.65577    0.57421    0.86900   1.00
H2       0.54366    0.86836    0.89837   1.00
H2       0.53116    0.84130    0.94377   1.00
H2       0.58010    0.83510    0.92107   1.00
C5       1.13218    0.67285    0.85061   1.00
H2       1.14745    0.65760    0.82645   1.00
H2       1.11090    0.65150    0.86252   1.00
C5       1.16194    0.68456    0.88216   1.00
C5       1.17123    0.64978    0.90903   1.00
H2       1.15015    0.70895    0.90008   1.00
O3       0.98000    0.79801    0.80206   1.00
C4       1.02100    0.74992    0.74959   1.00
C3c      1.04243    0.72379    0.77276   1.00
H1       1.02725    0.70303    0.79102   1.00
C3d      1.04135    0.77636    0.72558   1.00
C3       1.08354    0.72433    0.77323   1.00
O2       1.10248    0.69487    0.79287   1.00
C3       1.08227    0.77748    0.72654   1.00
H1       1.09657    0.79919    0.70867   1.00
C2       1.10439    0.75155    0.75012   1.00
C5       0.97879    0.83736    0.78991   1.00
H2       0.94838    0.84879    0.78824   1.00
H2       0.99266    0.84104    0.76068   1.00
C5       1.00129    0.86140    0.81982   1.00
H2       1.03137    0.84929    0.82230   1.00
H2       0.98698    0.85781    0.84881   1.00
C5       1.00262    0.90473    0.80802   1.00
H2       0.97268    0.91694    0.80523   1.00
H2       1.01811    0.90849    0.77973   1.00
C5       1.02445    0.92851    0.83927   1.00
C5       1.01105    0.78936    0.66776   1.00
C5       1.11070    0.70681    0.83150   1.00
H2       0.99088    0.76413    0.67088   1.00
H2       1.03712    0.77984    0.65074   1.00
H2       1.08300    0.71305    0.84744   1.00
H2       1.12895    0.73386    0.83261   1.00
H2       1.19030    0.69371    0.86886   1.00
H2       0.94247    0.78765    0.61871   1.00
H2       0.98763    0.78799    0.59088   1.00
C2       0.89605    0.75267    0.75023   1.00
C3       0.91597    0.72680    0.72511   1.00
O2       0.89674    0.70959    0.69421   1.00
C3       0.91826    0.77588    0.77617   1.00
H1       0.90385    0.79523    0.79647   1.00
C3a      0.95713    0.72544    0.72570   1.00
H1       0.97202    0.70713    0.70475   1.00
C3b      0.95922    0.77536    0.77582   1.00
C4       0.97900    0.75008    0.75041   1.00
O3       1.02167    0.80463    0.70449   1.00
C5       0.88720    0.67059    0.70331   1.00
H2       0.91391    0.65310    0.70986   1.00
C5       0.86674    0.65352    0.66769   1.00
H2       0.86726    0.66916    0.72897   1.00
H2       0.88932    0.64530    0.64581   1.00
H2       0.84907    0.67729    0.65429   1.00
C5       0.84082    0.61820    0.67762   1.00
H2       0.85824    0.59609    0.69371   1.00
C5       0.82453    0.59937    0.64023   1.00
H2       0.81507    0.62702    0.69562   1.00
C5       0.99017    0.82164    0.64537   1.00
H2       1.01215    0.84385    0.63641   1.00
H2       0.96952    0.83641    0.66568   1.00
C5       0.96800    0.80576    0.60967   1.00
C5       0.95225    0.83984    0.58501   1.00
H2       1.19286    0.62955    0.89391   1.00
H2       1.18447    0.66094    0.93742   1.00
H2       1.14323    0.63311    0.91567   1.00
H2       1.03105    0.95890    0.82747   1.00
H2       1.00551    0.93107    0.86649   1.00
H2       1.05293    0.91318    0.84698   1.00
H2       0.79387    0.58788    0.64605   1.00
H2       0.82344    0.62207    0.61595   1.00
H2       0.84423    0.57421    0.63100   1.00
H2       0.95634    0.86836    0.60163   1.00
H2       0.96884    0.84130    0.55623   1.00
H2       0.91990    0.83510    0.57893   1.00
C5       0.64939    0.36782    0.67285   1.00
H2       0.67355    0.35255    0.65760   1.00
H2       0.63748    0.38910    0.65150   1.00
C5       0.61784    0.33806    0.68456   1.00
C5       0.59097    0.32877    0.64978   1.00
H2       0.59992    0.34985    0.70895   1.00
O3       0.69794    0.52000    0.79801   1.00
C4       0.75041    0.47900    0.74992   1.00
C3c      0.72724    0.45757    0.72379   1.00
H1       0.70898    0.47275    0.70303   1.00
C3d      0.77442    0.45865    0.77636   1.00
C3       0.72677    0.41646    0.72433   1.00
O2       0.70713    0.39752    0.69487   1.00
C3       0.77346    0.41773    0.77748   1.00
H1       0.79133    0.40343    0.79919   1.00
C2       0.74988    0.39561    0.75155   1.00
C5       0.71009    0.52121    0.83736   1.00
H2       0.71176    0.55162    0.84879   1.00
H2       0.73932    0.50734    0.84104   1.00
C5       0.68018    0.49871    0.86140   1.00
H2       0.67770    0.46863    0.84929   1.00
H2       0.65119    0.51302    0.85781   1.00
C5       0.69198    0.49738    0.90473   1.00
H2       0.69477    0.52732    0.91694   1.00
H2       0.72027    0.48189    0.90849   1.00
C5       0.66073    0.47555    0.92851   1.00
C5       0.83224    0.48895    0.78936   1.00
C5       0.66850    0.38930    0.70681   1.00
H2       0.82912    0.50912    0.76413   1.00
H2       0.84926    0.46288    0.77984   1.00
H2       0.65256    0.41700    0.71305   1.00
H2       0.66739    0.37105    0.73386   1.00
H2       0.63114    0.30970    0.69371   1.00
H2       0.88129    0.55753    0.78765   1.00
H2       0.90912    0.51237    0.78799   1.00
C2       0.74977    0.60395    0.75267   1.00
C3       0.77489    0.58403    0.72680   1.00
O2       0.80579    0.60326    0.70959   1.00
C3       0.72383    0.58174    0.77588   1.00
H1       0.70353    0.59615    0.79523   1.00
C3a      0.77430    0.54287    0.72544   1.00
H1       0.79525    0.52798    0.70713   1.00
C3b      0.72418    0.54078    0.77536   1.00
C4       0.74959    0.52100    0.75008   1.00
O3       0.79551    0.47833    0.80463   1.00
C5       0.79669    0.61280    0.67059   1.00
H2       0.79014    0.58609    0.65310   1.00
C5       0.83231    0.63326    0.65352   1.00
H2       0.77103    0.63274    0.66916   1.00
H2       0.85419    0.61068    0.64530   1.00
H2       0.84571    0.65093    0.67729   1.00
C5       0.82238    0.65918    0.61820   1.00
H2       0.80629    0.64176    0.59609   1.00
C5       0.85977    0.67547    0.59937   1.00
H2       0.80438    0.68493    0.62702   1.00
C5       0.85463    0.50983    0.82164   1.00
H2       0.86359    0.48785    0.84385   1.00
H2       0.83432    0.53048    0.83641   1.00
C5       0.89033    0.53200    0.80576   1.00
C5       0.91499    0.54775    0.83984   1.00
H2       0.60609    0.30714    0.62955   1.00
H2       0.56258    0.31553    0.66094   1.00
H2       0.58433    0.35677    0.63311   1.00
H2       0.67253    0.46895    0.95890   1.00
H2       0.63351    0.49449    0.93107   1.00
H2       0.65302    0.44707    0.91318   1.00
H2       0.85395    0.70613    0.58788   1.00
H2       0.88405    0.67656    0.62207   1.00
H2       0.86900    0.65577    0.57421   1.00
H2       0.89837    0.54366    0.86836   1.00
H2       0.94377    0.53116    0.84130   1.00
H2       0.92107    0.58010    0.83510   1.00
C5       0.67285    0.64939    0.36782   1.00
H2       0.65760    0.67355    0.35255   1.00
H2       0.65150    0.63748    0.38910   1.00
C5       0.68456    0.61784    0.33806   1.00
C5       0.64978    0.59097    0.32877   1.00
H2       0.70895    0.59992    0.34985   1.00
O3       0.79801    0.69794    0.52000   1.00
C4       0.74992    0.75041    0.47900   1.00
C3c      0.72379    0.72724    0.45757   1.00
H1       0.70303    0.70898    0.47275   1.00
C3d      0.77636    0.77442    0.45865   1.00
C3       0.72433    0.72677    0.41646   1.00
O2       0.69487    0.70713    0.39752   1.00
C3       0.77748    0.77346    0.41773   1.00
H1       0.79919    0.79133    0.40343   1.00
C2       0.75155    0.74988    0.39561   1.00
C5       0.83736    0.71009    0.52121   1.00
H2       0.84879    0.71176    0.55162   1.00
H2       0.84104    0.73932    0.50734   1.00
C5       0.86140    0.68018    0.49871   1.00
H2       0.84929    0.67770    0.46863   1.00
H2       0.85781    0.65119    0.51302   1.00
C5       0.90473    0.69198    0.49738   1.00
H2       0.91694    0.69477    0.52732   1.00
H2       0.90849    0.72027    0.48189   1.00
C5       0.92851    0.66073    0.47555   1.00
C5       0.78936    0.83224    0.48895   1.00
C5       0.70681    0.66850    0.38930   1.00
H2       0.76413    0.82912    0.50912   1.00
H2       0.77984    0.84926    0.46288   1.00
H2       0.71305    0.65256    0.41700   1.00
H2       0.73386    0.66739    0.37105   1.00
H2       0.69371    0.63114    0.30970   1.00
H2       0.78765    0.88129    0.55753   1.00
H2       0.78799    0.90912    0.51237   1.00
C2       0.75267    0.74977    0.60395   1.00
C3       0.72680    0.77489    0.58403   1.00
O2       0.70959    0.80579    0.60326   1.00
C3       0.77588    0.72383    0.58174   1.00
H1       0.79523    0.70353    0.59615   1.00
C3a      0.72544    0.77430    0.54287   1.00
H1       0.70713    0.79525    0.52798   1.00
C3b      0.77536    0.72418    0.54078   1.00
C4       0.75008    0.74959    0.52100   1.00
O3       0.80463    0.79551    0.47833   1.00
C5       0.67059    0.79669    0.61280   1.00
H2       0.65310    0.79014    0.58609   1.00
C5       0.65352    0.83231    0.63326   1.00
H2       0.66916    0.77103    0.63274   1.00
H2       0.64530    0.85419    0.61068   1.00
H2       0.67729    0.84571    0.65093   1.00
C5       0.61820    0.82238    0.65918   1.00
H2       0.59609    0.80629    0.64176   1.00
C5       0.59937    0.85977    0.67547   1.00
H2       0.62702    0.80438    0.68493   1.00
C5       0.82164    0.85463    0.50983   1.00
H2       0.84385    0.86359    0.48785   1.00
H2       0.83641    0.83432    0.53048   1.00
C5       0.80576    0.89033    0.53200   1.00
C5       0.83984    0.91499    0.54775   1.00
H2       0.62955    0.60609    0.30714   1.00
H2       0.66094    0.56258    0.31553   1.00
H2       0.63311    0.58433    0.35677   1.00
H2       0.95890    0.67253    0.46895   1.00
H2       0.93107    0.63351    0.49449   1.00
H2       0.91318    0.65302    0.44707   1.00
H2       0.58788    0.85395    0.70613   1.00
H2       0.62207    0.88405    0.67656   1.00
H2       0.57421    0.86900    0.65577   1.00
H2       0.86836    0.89837    0.54366   1.00
H2       0.84130    0.94377    0.53116   1.00
H2       0.83510    0.92107    0.58010   1.00
C5       0.17285    0.35061    1.13218   1.00
H2       0.15760    0.32645    1.14745   1.00
H2       0.15150    0.36252    1.11090   1.00
C5       0.18456    0.38216    1.16194   1.00
C5       0.14978    0.40903    1.17123   1.00
H2       0.20895    0.40008    1.15015   1.00
O3       0.29801    0.30206    0.98000   1.00
C4       0.24992    0.24959    1.02100   1.00
C3c      0.22379    0.27276    1.04243   1.00
H1       0.20303    0.29102    1.02725   1.00
C3d      0.27636    0.22558    1.04135   1.00
C3       0.22433    0.27323    1.08354   1.00
O2       0.19487    0.29287    1.10248   1.00
C3       0.27748    0.22654    1.08227   1.00
H1       0.29919    0.20867    1.09657   1.00
C2       0.25155    0.25012    1.10439   1.00
C5       0.33736    0.28991    0.97879   1.00
H2       0.34879    0.28824    0.94838   1.00
H2       0.34104    0.26068    0.99266   1.00
C5       0.36140    0.31982    1.00129   1.00
H2       0.34929    0.32230    1.03137   1.00
H2       0.35781    0.34881    0.98698   1.00
C5       0.40473    0.30802    1.00262   1.00
H2       0.41694    0.30523    0.97268   1.00
H2       0.40849    0.27973    1.01811   1.00
C5       0.42851    0.33927    1.02445   1.00
C5       0.28936    0.16776    1.01105   1.00
C5       0.20681    0.33150    1.11070   1.00
H2       0.26413    0.17088    0.99088   1.00
H2       0.27984    0.15074    1.03712   1.00
H2       0.21305    0.34744    1.08300   1.00
H2       0.23386    0.33261    1.12895   1.00
H2       0.19371    0.36886    1.19030   1.00
H2       0.28765    0.11871    0.94247   1.00
H2       0.28799    0.09088    0.98763   1.00
C2       0.25267    0.25023    0.89605   1.00
C3       0.22680    0.22511    0.91597   1.00
O2       0.20959    0.19421    0.89674   1.00
C3       0.27588    0.27617    0.91826   1.00
H1       0.29523    0.29647    0.90385   1.00
C3a      0.22544    0.22570    0.95713   1.00
H1       0.20713    0.20475    0.97202   1.00
C3b      0.27536    0.27582    0.95922   1.00
C4       0.25008    0.25041    0.97900   1.00
O3       0.30463    0.20449    1.02167   1.00
C5       0.17059    0.20331    0.88720   1.00
H2       0.15310    0.20986    0.91391   1.00
C5       0.15352    0.16769    0.86674   1.00
H2       0.16916    0.22897    0.86726   1.00
H2       0.14530    0.14581    0.88932   1.00
H2       0.17729    0.15429    0.84907   1.00
C5       0.11820    0.17762    0.84082   1.00
H2       0.09609    0.19371    0.85824   1.00
C5       0.09937    0.14023    0.82453   1.00
H2       0.12702    0.19562    0.81507   1.00
C5       0.32164    0.14537    0.99017   1.00
H2       0.34385    0.13641    1.01215   1.00
H2       0.33641    0.16568    0.96952   1.00
C5       0.30576    0.10967    0.96800   1.00
C5       0.33984    0.08501    0.95225   1.00
H2       0.12955    0.39391    1.19286   1.00
H2       0.16094    0.43742    1.18447   1.00
H2       0.13311    0.41567    1.14323   1.00
H2       0.45890    0.32747    1.03105   1.00
H2       0.43107    0.36649    1.00551   1.00
H2       0.41318    0.34698    1.05293   1.00
H2       0.08788    0.14605    0.79387   1.00
H2       0.12207    0.11595    0.82344   1.00
H2       0.07421    0.13100    0.84423   1.00
H2       0.36836    0.10163    0.95634   1.00
H2       0.34130    0.05623    0.96884   1.00
H2       0.33510    0.07893    0.91990   1.00
C5       0.35061    0.63218    0.67285   1.00
H2       0.32645    0.64745    0.65760   1.00
H2       0.36252    0.61090    0.65150   1.00
C5       0.38216    0.66194    0.68456   1.00
C5       0.40903    0.67123    0.64978   1.00
H2       0.40008    0.65015    0.70895   1.00
O3       0.30206    0.48000    0.79801   1.00
C4       0.24959    0.52100    0.74992   1.00
C3c      0.27276    0.54243    0.72379   1.00
H1       0.29102    0.52725    0.70303   1.00
C3d      0.22558    0.54135    0.77636   1.00
C3       0.27323    0.58354    0.72433   1.00
O2       0.29287    0.60248    0.69487   1.00
C3       0.22654    0.58227    0.77748   1.00
H1       0.20867    0.59657    0.79919   1.00
C2       0.25012    0.60439    0.75155   1.00
C5       0.28991    0.47879    0.83736   1.00
H2       0.28824    0.44838    0.84879   1.00
H2       0.26068    0.49266    0.84104   1.00
C5       0.31982    0.50129    0.86140   1.00
H2       0.32230    0.53137    0.84929   1.00
H2       0.34881    0.48698    0.85781   1.00
C5       0.30802    0.50262    0.90473   1.00
H2       0.30523    0.47268    0.91694   1.00
H2       0.27973    0.51811    0.90849   1.00
C5       0.33927    0.52445    0.92851   1.00
C5       0.16776    0.51105    0.78936   1.00
C5       0.33150    0.61070    0.70681   1.00
H2       0.17088    0.49088    0.76413   1.00
H2       0.15074    0.53712    0.77984   1.00
H2       0.34744    0.58300    0.71305   1.00
H2       0.33261    0.62895    0.73386   1.00
H2       0.36886    0.69030    0.69371   1.00
H2       0.11871    0.44247    0.78765   1.00
H2       0.09088    0.48763    0.78799   1.00
C2       0.25023    0.39605    0.75267   1.00
C3       0.22511    0.41597    0.72680   1.00
O2       0.19421    0.39674    0.70959   1.00
C3       0.27617    0.41826    0.77588   1.00
H1       0.29647    0.40385    0.79523   1.00
C3a      0.22570    0.45713    0.72544   1.00
H1       0.20475    0.47202    0.70713   1.00
C3b      0.27582    0.45922    0.77536   1.00
C4       0.25041    0.47900    0.75008   1.00
O3       0.20449    0.52167    0.80463   1.00
C5       0.20331    0.38720    0.67059   1.00
H2       0.20986    0.41391    0.65310   1.00
C5       0.16769    0.36674    0.65352   1.00
H2       0.22897    0.36726    0.66916   1.00
H2       0.14581    0.38932    0.64530   1.00
H2       0.15429    0.34907    0.67729   1.00
C5       0.17762    0.34082    0.61820   1.00
H2       0.19371    0.35824    0.59609   1.00
C5       0.14023    0.32453    0.59937   1.00
H2       0.19562    0.31507    0.62702   1.00
C5       0.14537    0.49017    0.82164   1.00
H2       0.13641    0.51215    0.84385   1.00
H2       0.16568    0.46952    0.83641   1.00
C5       0.10967    0.46800    0.80576   1.00
C5       0.08501    0.45225    0.83984   1.00
H2       0.39391    0.69286    0.62955   1.00
H2       0.43742    0.68447    0.66094   1.00
H2       0.41567    0.64323    0.63311   1.00
H2       0.32747    0.53105    0.95890   1.00
H2       0.36649    0.50551    0.93107   1.00
H2       0.34698    0.55293    0.91318   1.00
H2       0.14605    0.29387    0.58788   1.00
H2       0.11595    0.32344    0.62207   1.00
H2       0.13100    0.34423    0.57421   1.00
H2       0.10163    0.45634    0.86836   1.00
H2       0.05623    0.46884    0.84130   1.00
H2       0.07893    0.41990    0.83510   1.00
C5       -0.13218   0.17285    0.64939   1.00
H2       -0.14745   0.15760    0.67355   1.00
H2       -0.11090   0.15150    0.63748   1.00
C5       -0.16194   0.18456    0.61784   1.00
C5       -0.17123   0.14978    0.59097   1.00
H2       -0.15015   0.20895    0.59992   1.00
O3       0.02000    0.29801    0.69794   1.00
C4       -0.02100   0.24992    0.75041   1.00
C3c      -0.04243   0.22379    0.72724   1.00
H1       -0.02725   0.20303    0.70898   1.00
C3d      -0.04135   0.27636    0.77442   1.00
C3       -0.08354   0.22433    0.72677   1.00
O2       -0.10248   0.19487    0.70713   1.00
C3       -0.08227   0.27748    0.77346   1.00
H1       -0.09657   0.29919    0.79133   1.00
C2       -0.10439   0.25155    0.74988   1.00
C5       0.02121    0.33736    0.71009   1.00
H2       0.05162    0.34879    0.71176   1.00
H2       0.00734    0.34104    0.73932   1.00
C5       -0.00129   0.36140    0.68018   1.00
H2       -0.03137   0.34929    0.67770   1.00
H2       0.01302    0.35781    0.65119   1.00
C5       -0.00262   0.40473    0.69198   1.00
H2       0.02732    0.41694    0.69477   1.00
H2       -0.01811   0.40849    0.72027   1.00
C5       -0.02445   0.42851    0.66073   1.00
C5       -0.01105   0.28936    0.83224   1.00
C5       -0.11070   0.20681    0.66850   1.00
H2       0.00912    0.26413    0.82912   1.00
H2       -0.03712   0.27984    0.84926   1.00
H2       -0.08300   0.21305    0.65256   1.00
H2       -0.12895   0.23386    0.66739   1.00
H2       -0.19030   0.19371    0.63114   1.00
H2       0.05753    0.28765    0.88129   1.00
H2       0.01237    0.28799    0.90912   1.00
C2       0.10395    0.25267    0.74977   1.00
C3       0.08403    0.22680    0.77489   1.00
O2       0.10326    0.20959    0.80579   1.00
C3       0.08174    0.27588    0.72383   1.00
H1       0.09615    0.29523    0.70353   1.00
C3a      0.04287    0.22544    0.77430   1.00
H1       0.02798    0.20713    0.79525   1.00
C3b      0.04078    0.27536    0.72418   1.00
C4       0.02100    0.25008    0.74959   1.00
O3       -0.02167   0.30463    0.79551   1.00
C5       0.11280    0.17059    0.79669   1.00
H2       0.08609    0.15310    0.79014   1.00
C5       0.13326    0.15352    0.83231   1.00
H2       0.13274    0.16916    0.77103   1.00
H2       0.11068    0.14530    0.85419   1.00
H2       0.15093    0.17729    0.84571   1.00
C5       0.15918    0.11820    0.82238   1.00
H2       0.14176    0.09609    0.80629   1.00
C5       0.17547    0.09937    0.85977   1.00
H2       0.18493    0.12702    0.80438   1.00
C5       0.00983    0.32164    0.85463   1.00
H2       -0.01215   0.34385    0.86359   1.00
H2       0.03048    0.33641    0.83432   1.00
C5       0.03200    0.30576    0.89033   1.00
C5       0.04775    0.33984    0.91499   1.00
H2       -0.19286   0.12955    0.60609   1.00
H2       -0.18447   0.16094    0.56258   1.00
H2       -0.14323   0.13311    0.58433   1.00
H2       -0.03105   0.45890    0.67253   1.00
H2       -0.00551   0.43107    0.63351   1.00
H2       -0.05293   0.41318    0.65302   1.00
H2       0.20613    0.08788    0.85395   1.00
H2       0.17656    0.12207    0.88405   1.00
H2       0.15577    0.07421    0.86900   1.00
H2       0.04366    0.36836    0.89837   1.00
H2       0.03116    0.34130    0.94377   1.00
H2       0.08010    0.33510    0.92107   1.00
C5       0.63218    0.17285    0.85061   1.00
H2       0.64745    0.15760    0.82645   1.00
H2       0.61090    0.15150    0.86252   1.00
C5       0.66194    0.18456    0.88216   1.00
C5       0.67123    0.14978    0.90903   1.00
H2       0.65015    0.20895    0.90008   1.00
O3       0.48000    0.29801    0.80206   1.00
C4       0.52100    0.24992    0.74959   1.00
C3c      0.54243    0.22379    0.77276   1.00
H1       0.52725    0.20303    0.79102   1.00
C3d      0.54135    0.27636    0.72558   1.00
C3       0.58354    0.22433    0.77323   1.00
O2       0.60248    0.19487    0.79287   1.00
C3       0.58227    0.27748    0.72654   1.00
H1       0.59657    0.29919    0.70867   1.00
C2       0.60439    0.25155    0.75012   1.00
C5       0.47879    0.33736    0.78991   1.00
H2       0.44838    0.34879    0.78824   1.00
H2       0.49266    0.34104    0.76068   1.00
C5       0.50129    0.36140    0.81982   1.00
H2       0.53137    0.34929    0.82230   1.00
H2       0.48698    0.35781    0.84881   1.00
C5       0.50262    0.40473    0.80802   1.00
H2       0.47268    0.41694    0.80523   1.00
H2       0.51811    0.40849    0.77973   1.00
C5       0.52445    0.42851    0.83927   1.00
C5       0.51105    0.28936    0.66776   1.00
C5       0.61070    0.20681    0.83150   1.00
H2       0.49088    0.26413    0.67088   1.00
H2       0.53712    0.27984    0.65074   1.00
H2       0.58300    0.21305    0.84744   1.00
H2       0.62895    0.23386    0.83261   1.00
H2       0.69030    0.19371    0.86886   1.00
H2       0.44247    0.28765    0.61871   1.00
H2       0.48763    0.28799    0.59088   1.00
C2       0.39605    0.25267    0.75023   1.00
C3       0.41597    0.22680    0.72511   1.00
O2       0.39674    0.20959    0.69421   1.00
C3       0.41826    0.27588    0.77617   1.00
H1       0.40385    0.29523    0.79647   1.00
C3a      0.45713    0.22544    0.72570   1.00
H1       0.47202    0.20713    0.70475   1.00
C3b      0.45922    0.27536    0.77582   1.00
C4       0.47900    0.25008    0.75041   1.00
O3       0.52167    0.30463    0.70449   1.00
C5       0.38720    0.17059    0.70331   1.00
H2       0.41391    0.15310    0.70986   1.00
C5       0.36674    0.15352    0.66769   1.00
H2       0.36726    0.16916    0.72897   1.00
H2       0.38932    0.14530    0.64581   1.00
H2       0.34907    0.17729    0.65429   1.00
C5       0.34082    0.11820    0.67762   1.00
H2       0.35824    0.09609    0.69371   1.00
C5       0.32453    0.09937    0.64023   1.00
H2       0.31507    0.12702    0.69562   1.00
C5       0.49017    0.32164    0.64537   1.00
H2       0.51215    0.34385    0.63641   1.00
H2       0.46952    0.33641    0.66568   1.00
C5       0.46800    0.30576    0.60967   1.00
C5       0.45225    0.33984    0.58501   1.00
H2       0.69286    0.12955    0.89391   1.00
H2       0.68447    0.16094    0.93742   1.00
H2       0.64323    0.13311    0.91567   1.00
H2       0.53105    0.45890    0.82747   1.00
H2       0.50551    0.43107    0.86649   1.00
H2       0.55293    0.41318    0.84698   1.00
H2       0.29387    0.08788    0.64605   1.00
H2       0.32344    0.12207    0.61595   1.00
H2       0.34423    0.07421    0.63100   1.00
H2       0.45634    0.36836    0.60163   1.00
H2       0.46884    0.34130    0.55623   1.00
H2       0.41990    0.33510    0.57893   1.00
C5       0.14939    -0.13218   0.67285   1.00
H2       0.17355    -0.14745   0.65760   1.00
H2       0.13748    -0.11090   0.65150   1.00
C5       0.11784    -0.16194   0.68456   1.00
C5       0.09097    -0.17123   0.64978   1.00
H2       0.09992    -0.15015   0.70895   1.00
O3       0.19794    0.02000    0.79801   1.00
C4       0.25041    -0.02100   0.74992   1.00
C3c      0.22724    -0.04243   0.72379   1.00
H1       0.20898    -0.02725   0.70303   1.00
C3d      0.27442    -0.04135   0.77636   1.00
C3       0.22677    -0.08354   0.72433   1.00
O2       0.20713    -0.10248   0.69487   1.00
C3       0.27346    -0.08227   0.77748   1.00
H1       0.29133    -0.09657   0.79919   1.00
C2       0.24988    -0.10439   0.75155   1.00
C5       0.21009    0.02121    0.83736   1.00
H2       0.21176    0.05162    0.84879   1.00
H2       0.23932    0.00734    0.84104   1.00
C5       0.18018    -0.00129   0.86140   1.00
H2       0.17770    -0.03137   0.84929   1.00
H2       0.15119    0.01302    0.85781   1.00
C5       0.19198    -0.00262   0.90473   1.00
H2       0.19477    0.02732    0.91694   1.00
H2       0.22027    -0.01811   0.90849   1.00
C5       0.16073    -0.02445   0.92851   1.00
C5       0.33224    -0.01105   0.78936   1.00
C5       0.16850    -0.11070   0.70681   1.00
H2       0.32912    0.00912    0.76413   1.00
H2       0.34926    -0.03712   0.77984   1.00
H2       0.15256    -0.08300   0.71305   1.00
H2       0.16739    -0.12895   0.73386   1.00
H2       0.13114    -0.19030   0.69371   1.00
H2       0.38129    0.05753    0.78765   1.00
H2       0.40912    0.01237    0.78799   1.00
C2       0.24977    0.10395    0.75267   1.00
C3       0.27489    0.08403    0.72680   1.00
O2       0.30579    0.10326    0.70959   1.00
C3       0.22383    0.08174    0.77588   1.00
H1       0.20353    0.09615    0.79523   1.00
C3a      0.27430    0.04287    0.72544   1.00
H1       0.29525    0.02798    0.70713   1.00
C3b      0.22418    0.04078    0.77536   1.00
C4       0.24959    0.02100    0.75008   1.00
O3       0.29551    -0.02167   0.80463   1.00
C5       0.29669    0.11280    0.67059   1.00
H2       0.29014    0.08609    0.65310   1.00
C5       0.33231    0.13326    0.65352   1.00
H2       0.27103    0.13274    0.66916   1.00
H2       0.35419    0.11068    0.64530   1.00
H2       0.34571    0.15093    0.67729   1.00
C5       0.32238    0.15918    0.61820   1.00
H2       0.30629    0.14176    0.59609   1.00
C5       0.35977    0.17547    0.59937   1.00
H2       0.30438    0.18493    0.62702   1.00
C5       0.35463    0.00983    0.82164   1.00
H2       0.36359    -0.01215   0.84385   1.00
H2       0.33432    0.03048    0.83641   1.00
C5       0.39033    0.03200    0.80576   1.00
C5       0.41499    0.04775    0.83984   1.00
H2       0.10609    -0.19286   0.62955   1.00
H2       0.06258    -0.18447   0.66094   1.00
H2       0.08433    -0.14323   0.63311   1.00
H2       0.17253    -0.03105   0.95890   1.00
H2       0.13351    -0.00551   0.93107   1.00
H2       0.15302    -0.05293   0.91318   1.00
H2       0.35395    0.20613    0.58788   1.00
H2       0.38405    0.17656    0.62207   1.00
H2       0.36900    0.15577    0.57421   1.00
H2       0.39837    0.04366    0.86836   1.00
H2       0.44377    0.03116    0.84130   1.00
H2       0.42107    0.08010    0.83510   1.00
C5       0.17285    0.14939    0.36782   1.00
H2       0.15760    0.17355    0.35255   1.00
H2       0.15150    0.13748    0.38910   1.00
C5       0.18456    0.11784    0.33806   1.00
C5       0.14978    0.09097    0.32877   1.00
H2       0.20895    0.09992    0.34985   1.00
O3       0.29801    0.19794    0.52000   1.00
C4       0.24992    0.25041    0.47900   1.00
C3c      0.22379    0.22724    0.45757   1.00
H1       0.20303    0.20898    0.47275   1.00
C3d      0.27636    0.27442    0.45865   1.00
C3       0.22433    0.22677    0.41646   1.00
O2       0.19487    0.20713    0.39752   1.00
C3       0.27748    0.27346    0.41773   1.00
H1       0.29919    0.29133    0.40343   1.00
C2       0.25155    0.24988    0.39561   1.00
C5       0.33736    0.21009    0.52121   1.00
H2       0.34879    0.21176    0.55162   1.00
H2       0.34104    0.23932    0.50734   1.00
C5       0.36140    0.18018    0.49871   1.00
H2       0.34929    0.17770    0.46863   1.00
H2       0.35781    0.15119    0.51302   1.00
C5       0.40473    0.19198    0.49738   1.00
H2       0.41694    0.19477    0.52732   1.00
H2       0.40849    0.22027    0.48189   1.00
C5       0.42851    0.16073    0.47555   1.00
C5       0.28936    0.33224    0.48895   1.00
C5       0.20681    0.16850    0.38930   1.00
H2       0.26413    0.32912    0.50912   1.00
H2       0.27984    0.34926    0.46288   1.00
H2       0.21305    0.15256    0.41700   1.00
H2       0.23386    0.16739    0.37105   1.00
H2       0.19371    0.13114    0.30970   1.00
H2       0.28765    0.38129    0.55753   1.00
H2       0.28799    0.40912    0.51237   1.00
C2       0.25267    0.24977    0.60395   1.00
C3       0.22680    0.27489    0.58403   1.00
O2       0.20959    0.30579    0.60326   1.00
C3       0.27588    0.22383    0.58174   1.00
H1       0.29523    0.20353    0.59615   1.00
C3a      0.22544    0.27430    0.54287   1.00
H1       0.20713    0.29525    0.52798   1.00
C3b      0.27536    0.22418    0.54078   1.00
C4       0.25008    0.24959    0.52100   1.00
O3       0.30463    0.29551    0.47833   1.00
C5       0.17059    0.29669    0.61280   1.00
H2       0.15310    0.29014    0.58609   1.00
C5       0.15352    0.33231    0.63326   1.00
H2       0.16916    0.27103    0.63274   1.00
H2       0.14530    0.35419    0.61068   1.00
H2       0.17729    0.34571    0.65093   1.00
C5       0.11820    0.32238    0.65918   1.00
H2       0.09609    0.30629    0.64176   1.00
C5       0.09937    0.35977    0.67547   1.00
H2       0.12702    0.30438    0.68493   1.00
C5       0.32164    0.35463    0.50983   1.00
H2       0.34385    0.36359    0.48785   1.00
H2       0.33641    0.33432    0.53048   1.00
C5       0.30576    0.39033    0.53200   1.00
C5       0.33984    0.41499    0.54775   1.00
H2       0.12955    0.10609    0.30714   1.00
H2       0.16094    0.06258    0.31553   1.00
H2       0.13311    0.08433    0.35677   1.00
H2       0.45890    0.17253    0.46895   1.00
H2       0.43107    0.13351    0.49449   1.00
H2       0.41318    0.15302    0.44707   1.00
H2       0.08788    0.35395    0.70613   1.00
H2       0.12207    0.38405    0.67656   1.00
H2       0.07421    0.36900    0.65577   1.00
H2       0.36836    0.39837    0.54366   1.00
H2       0.34130    0.44377    0.53116   1.00
H2       0.33510    0.42107    0.58010   1.00
C5       0.17285    0.85061    0.63218   1.00
H2       0.15760    0.82645    0.64745   1.00
H2       0.15150    0.86252    0.61090   1.00
C5       0.18456    0.88216    0.66194   1.00
C5       0.14978    0.90903    0.67123   1.00
H2       0.20895    0.90008    0.65015   1.00
O3       0.29801    0.80206    0.48000   1.00
C4       0.24992    0.74959    0.52100   1.00
C3c      0.22379    0.77276    0.54243   1.00
H1       0.20303    0.79102    0.52725   1.00
C3d      0.27636    0.72558    0.54135   1.00
C3       0.22433    0.77323    0.58354   1.00
O2       0.19487    0.79287    0.60248   1.00
C3       0.27748    0.72654    0.58227   1.00
H1       0.29919    0.70867    0.59657   1.00
C2       0.25155    0.75012    0.60439   1.00
C5       0.33736    0.78991    0.47879   1.00
H2       0.34879    0.78824    0.44838   1.00
H2       0.34104    0.76068    0.49266   1.00
C5       0.36140    0.81982    0.50129   1.00
H2       0.34929    0.82230    0.53137   1.00
H2       0.35781    0.84881    0.48698   1.00
C5       0.40473    0.80802    0.50262   1.00
H2       0.41694    0.80523    0.47268   1.00
H2       0.40849    0.77973    0.51811   1.00
C5       0.42851    0.83927    0.52445   1.00
C5       0.28936    0.66776    0.51105   1.00
C5       0.20681    0.83150    0.61070   1.00
H2       0.26413    0.67088    0.49088   1.00
H2       0.27984    0.65074    0.53712   1.00
H2       0.21305    0.84744    0.58300   1.00
H2       0.23386    0.83261    0.62895   1.00
H2       0.19371    0.86886    0.69030   1.00
H2       0.28765    0.61871    0.44247   1.00
H2       0.28799    0.59088    0.48763   1.00
C2       0.25267    0.75023    0.39605   1.00
C3       0.22680    0.72511    0.41597   1.00
O2       0.20959    0.69421    0.39674   1.00
C3       0.27588    0.77617    0.41826   1.00
H1       0.29523    0.79647    0.40385   1.00
C3a      0.22544    0.72570    0.45713   1.00
H1       0.20713    0.70475    0.47202   1.00
C3b      0.27536    0.77582    0.45922   1.00
C4       0.25008    0.75041    0.47900   1.00
O3       0.30463    0.70449    0.52167   1.00
C5       0.17059    0.70331    0.38720   1.00
H2       0.15310    0.70986    0.41391   1.00
C5       0.15352    0.66769    0.36674   1.00
H2       0.16916    0.72897    0.36726   1.00
H2       0.14530    0.64581    0.38932   1.00
H2       0.17729    0.65429    0.34907   1.00
C5       0.11820    0.67762    0.34082   1.00
H2       0.09609    0.69371    0.35824   1.00
C5       0.09937    0.64023    0.32453   1.00
H2       0.12702    0.69562    0.31507   1.00
C5       0.32164    0.64537    0.49017   1.00
H2       0.34385    0.63641    0.51215   1.00
H2       0.33641    0.66568    0.46952   1.00
C5       0.30576    0.60967    0.46800   1.00
C5       0.33984    0.58501    0.45225   1.00
H2       0.12955    0.89391    0.69286   1.00
H2       0.16094    0.93742    0.68447   1.00
H2       0.13311    0.91567    0.64323   1.00
H2       0.45890    0.82747    0.53105   1.00
H2       0.43107    0.86649    0.50551   1.00
H2       0.41318    0.84698    0.55293   1.00
H2       0.08788    0.64605    0.29387   1.00
H2       0.12207    0.61595    0.32344   1.00
H2       0.07421    0.63100    0.34423   1.00
H2       0.36836    0.60163    0.45634   1.00
H2       0.34130    0.55623    0.46884   1.00
H2       0.33510    0.57893    0.41990   1.00
C5       0.35061    1.13218    0.17285   1.00
H2       0.32645    1.14745    0.15760   1.00
H2       0.36252    1.11090    0.15150   1.00
C5       0.38216    1.16194    0.18456   1.00
C5       0.40903    1.17123    0.14978   1.00
H2       0.40008    1.15015    0.20895   1.00
O3       0.30206    0.98000    0.29801   1.00
C4       0.24959    1.02100    0.24992   1.00
C3c      0.27276    1.04243    0.22379   1.00
H1       0.29102    1.02725    0.20303   1.00
C3d      0.22558    1.04135    0.27636   1.00
C3       0.27323    1.08354    0.22433   1.00
O2       0.29287    1.10248    0.19487   1.00
C3       0.22654    1.08227    0.27748   1.00
H1       0.20867    1.09657    0.29919   1.00
C2       0.25012    1.10439    0.25155   1.00
C5       0.28991    0.97879    0.33736   1.00
H2       0.28824    0.94838    0.34879   1.00
H2       0.26068    0.99266    0.34104   1.00
C5       0.31982    1.00129    0.36140   1.00
H2       0.32230    1.03137    0.34929   1.00
H2       0.34881    0.98698    0.35781   1.00
C5       0.30802    1.00262    0.40473   1.00
H2       0.30523    0.97268    0.41694   1.00
H2       0.27973    1.01811    0.40849   1.00
C5       0.33927    1.02445    0.42851   1.00
C5       0.16776    1.01105    0.28936   1.00
C5       0.33150    1.11070    0.20681   1.00
H2       0.17088    0.99088    0.26413   1.00
H2       0.15074    1.03712    0.27984   1.00
H2       0.34744    1.08300    0.21305   1.00
H2       0.33261    1.12895    0.23386   1.00
H2       0.36886    1.19030    0.19371   1.00
H2       0.11871    0.94247    0.28765   1.00
H2       0.09088    0.98763    0.28799   1.00
C2       0.25023    0.89605    0.25267   1.00
C3       0.22511    0.91597    0.22680   1.00
O2       0.19421    0.89674    0.20959   1.00
C3       0.27617    0.91826    0.27588   1.00
H1       0.29647    0.90385    0.29523   1.00
C3a      0.22570    0.95713    0.22544   1.00
H1       0.20475    0.97202    0.20713   1.00
C3b      0.27582    0.95922    0.27536   1.00
C4       0.25041    0.97900    0.25008   1.00
O3       0.20449    1.02167    0.30463   1.00
C5       0.20331    0.88720    0.17059   1.00
H2       0.20986    0.91391    0.15310   1.00
C5       0.16769    0.86674    0.15352   1.00
H2       0.22897    0.86726    0.16916   1.00
H2       0.14581    0.88932    0.14530   1.00
H2       0.15429    0.84907    0.17729   1.00
C5       0.17762    0.84082    0.11820   1.00
H2       0.19371    0.85824    0.09609   1.00
C5       0.14023    0.82453    0.09937   1.00
H2       0.19562    0.81507    0.12702   1.00
C5       0.14537    0.99017    0.32164   1.00
H2       0.13641    1.01215    0.34385   1.00
H2       0.16568    0.96952    0.33641   1.00
C5       0.10967    0.96800    0.30576   1.00
C5       0.08501    0.95225    0.33984   1.00
H2       0.39391    1.19286    0.12955   1.00
H2       0.43742    1.18447    0.16094   1.00
H2       0.41567    1.14323    0.13311   1.00
H2       0.32747    1.03105    0.45890   1.00
H2       0.36649    1.00551    0.43107   1.00
H2       0.34698    1.05293    0.41318   1.00
H2       0.14605    0.79387    0.08788   1.00
H2       0.11595    0.82344    0.12207   1.00
H2       0.13100    0.84423    0.07421   1.00
H2       0.10163    0.95634    0.36836   1.00
H2       0.05623    0.96884    0.34130   1.00
H2       0.07893    0.91990    0.33510   1.00
C5       -0.13218   0.67285    0.14939   1.00
H2       -0.14745   0.65760    0.17355   1.00
H2       -0.11090   0.65150    0.13748   1.00
C5       -0.16194   0.68456    0.11784   1.00
C5       -0.17123   0.64978    0.09097   1.00
H2       -0.15015   0.70895    0.09992   1.00
O3       0.02000    0.79801    0.19794   1.00
C4       -0.02100   0.74992    0.25041   1.00
C3c      -0.04243   0.72379    0.22724   1.00
H1       -0.02725   0.70303    0.20898   1.00
C3d      -0.04135   0.77636    0.27442   1.00
C3       -0.08354   0.72433    0.22677   1.00
O2       -0.10248   0.69487    0.20713   1.00
C3       -0.08227   0.77748    0.27346   1.00
H1       -0.09657   0.79919    0.29133   1.00
C2       -0.10439   0.75155    0.24988   1.00
C5       0.02121    0.83736    0.21009   1.00
H2       0.05162    0.84879    0.21176   1.00
H2       0.00734    0.84104    0.23932   1.00
C5       -0.00129   0.86140    0.18018   1.00
H2       -0.03137   0.84929    0.17770   1.00
H2       0.01302    0.85781    0.15119   1.00
C5       -0.00262   0.90473    0.19198   1.00
H2       0.02732    0.91694    0.19477   1.00
H2       -0.01811   0.90849    0.22027   1.00
C5       -0.02445   0.92851    0.16073   1.00
C5       -0.01105   0.78936    0.33224   1.00
C5       -0.11070   0.70681    0.16850   1.00
H2       0.00912    0.76413    0.32912   1.00
H2       -0.03712   0.77984    0.34926   1.00
H2       -0.08300   0.71305    0.15256   1.00
H2       -0.12895   0.73386    0.16739   1.00
H2       -0.19030   0.69371    0.13114   1.00
H2       0.05753    0.78765    0.38129   1.00
H2       0.01237    0.78799    0.40912   1.00
C2       0.10395    0.75267    0.24977   1.00
C3       0.08403    0.72680    0.27489   1.00
O2       0.10326    0.70959    0.30579   1.00
C3       0.08174    0.77588    0.22383   1.00
H1       0.09615    0.79523    0.20353   1.00
C3a      0.04287    0.72544    0.27430   1.00
H1       0.02798    0.70713    0.29525   1.00
C3b      0.04078    0.77536    0.22418   1.00
C4       0.02100    0.75008    0.24959   1.00
O3       -0.02167   0.80463    0.29551   1.00
C5       0.11280    0.67059    0.29669   1.00
H2       0.08609    0.65310    0.29014   1.00
C5       0.13326    0.65352    0.33231   1.00
H2       0.13274    0.66916    0.27103   1.00
H2       0.11068    0.64530    0.35419   1.00
H2       0.15093    0.67729    0.34571   1.00
C5       0.15918    0.61820    0.32238   1.00
H2       0.14176    0.59609    0.30629   1.00
C5       0.17547    0.59937    0.35977   1.00
H2       0.18493    0.62702    0.30438   1.00
C5       0.00983    0.82164    0.35463   1.00
H2       -0.01215   0.84385    0.36359   1.00
H2       0.03048    0.83641    0.33432   1.00
C5       0.03200    0.80576    0.39033   1.00
C5       0.04775    0.83984    0.41499   1.00
H2       -0.19286   0.62955    0.10609   1.00
H2       -0.18447   0.66094    0.06258   1.00
H2       -0.14323   0.63311    0.08433   1.00
H2       -0.03105   0.95890    0.17253   1.00
H2       -0.00551   0.93107    0.13351   1.00
H2       -0.05293   0.91318    0.15302   1.00
H2       0.20613    0.58788    0.35395   1.00
H2       0.17656    0.62207    0.38405   1.00
H2       0.15577    0.57421    0.36900   1.00
H2       0.04366    0.86836    0.39837   1.00
H2       0.03116    0.84130    0.44377   1.00
H2       0.08010    0.83510    0.42107   1.00
C5       0.63218    0.67285    0.35061   1.00
H2       0.64745    0.65760    0.32645   1.00
H2       0.61090    0.65150    0.36252   1.00
C5       0.66194    0.68456    0.38216   1.00
C5       0.67123    0.64978    0.40903   1.00
H2       0.65015    0.70895    0.40008   1.00
O3       0.48000    0.79801    0.30206   1.00
C4       0.52100    0.74992    0.24959   1.00
C3c      0.54243    0.72379    0.27276   1.00
H1       0.52725    0.70303    0.29102   1.00
C3d      0.54135    0.77636    0.22558   1.00
C3       0.58354    0.72433    0.27323   1.00
O2       0.60248    0.69487    0.29287   1.00
C3       0.58227    0.77748    0.22654   1.00
H1       0.59657    0.79919    0.20867   1.00
C2       0.60439    0.75155    0.25012   1.00
C5       0.47879    0.83736    0.28991   1.00
H2       0.44838    0.84879    0.28824   1.00
H2       0.49266    0.84104    0.26068   1.00
C5       0.50129    0.86140    0.31982   1.00
H2       0.53137    0.84929    0.32230   1.00
H2       0.48698    0.85781    0.34881   1.00
C5       0.50262    0.90473    0.30802   1.00
H2       0.47268    0.91694    0.30523   1.00
H2       0.51811    0.90849    0.27973   1.00
C5       0.52445    0.92851    0.33927   1.00
C5       0.51105    0.78936    0.16776   1.00
C5       0.61070    0.70681    0.33150   1.00
H2       0.49088    0.76413    0.17088   1.00
H2       0.53712    0.77984    0.15074   1.00
H2       0.58300    0.71305    0.34744   1.00
H2       0.62895    0.73386    0.33261   1.00
H2       0.69030    0.69371    0.36886   1.00
H2       0.44247    0.78765    0.11871   1.00
H2       0.48763    0.78799    0.09088   1.00
C2       0.39605    0.75267    0.25023   1.00
C3       0.41597    0.72680    0.22511   1.00
O2       0.39674    0.70959    0.19421   1.00
C3       0.41826    0.77588    0.27617   1.00
H1       0.40385    0.79523    0.29647   1.00
C3a      0.45713    0.72544    0.22570   1.00
H1       0.47202    0.70713    0.20475   1.00
C3b      0.45922    0.77536    0.27582   1.00
C4       0.47900    0.75008    0.25041   1.00
O3       0.52167    0.80463    0.20449   1.00
C5       0.38720    0.67059    0.20331   1.00
H2       0.41391    0.65310    0.20986   1.00
C5       0.36674    0.65352    0.16769   1.00
H2       0.36726    0.66916    0.22897   1.00
H2       0.38932    0.64530    0.14581   1.00
H2       0.34907    0.67729    0.15429   1.00
C5       0.34082    0.61820    0.17762   1.00
H2       0.35824    0.59609    0.19371   1.00
C5       0.32453    0.59937    0.14023   1.00
H2       0.31507    0.62702    0.19562   1.00
C5       0.49017    0.82164    0.14537   1.00
H2       0.51215    0.84385    0.13641   1.00
H2       0.46952    0.83641    0.16568   1.00
C5       0.46800    0.80576    0.10967   1.00
C5       0.45225    0.83984    0.08501   1.00
H2       0.69286    0.62955    0.39391   1.00
H2       0.68447    0.66094    0.43742   1.00
H2       0.64323    0.63311    0.41567   1.00
H2       0.53105    0.95890    0.32747   1.00
H2       0.50551    0.93107    0.36649   1.00
H2       0.55293    0.91318    0.34698   1.00
H2       0.29387    0.58788    0.14605   1.00
H2       0.32344    0.62207    0.11595   1.00
H2       0.34423    0.57421    0.13100   1.00
H2       0.45634    0.86836    0.10163   1.00
H2       0.46884    0.84130    0.05623   1.00
H2       0.41990    0.83510    0.07893   1.00
C5       0.14939    0.36782    0.17285   1.00
H2       0.17355    0.35255    0.15760   1.00
H2       0.13748    0.38910    0.15150   1.00
C5       0.11784    0.33806    0.18456   1.00
C5       0.09097    0.32877    0.14978   1.00
H2       0.09992    0.34985    0.20895   1.00
O3       0.19794    0.52000    0.29801   1.00
C4       0.25041    0.47900    0.24992   1.00
C3c      0.22724    0.45757    0.22379   1.00
H1       0.20898    0.47275    0.20303   1.00
C3d      0.27442    0.45865    0.27636   1.00
C3       0.22677    0.41646    0.22433   1.00
O2       0.20713    0.39752    0.19487   1.00
C3       0.27346    0.41773    0.27748   1.00
H1       0.29133    0.40343    0.29919   1.00
C2       0.24988    0.39561    0.25155   1.00
C5       0.21009    0.52121    0.33736   1.00
H2       0.21176    0.55162    0.34879   1.00
H2       0.23932    0.50734    0.34104   1.00
C5       0.18018    0.49871    0.36140   1.00
H2       0.17770    0.46863    0.34929   1.00
H2       0.15119    0.51302    0.35781   1.00
C5       0.19198    0.49738    0.40473   1.00
H2       0.19477    0.52732    0.41694   1.00
H2       0.22027    0.48189    0.40849   1.00
C5       0.16073    0.47555    0.42851   1.00
C5       0.33224    0.48895    0.28936   1.00
C5       0.16850    0.38930    0.20681   1.00
H2       0.32912    0.50912    0.26413   1.00
H2       0.34926    0.46288    0.27984   1.00
H2       0.15256    0.41700    0.21305   1.00
H2       0.16739    0.37105    0.23386   1.00
H2       0.13114    0.30970    0.19371   1.00
H2       0.38129    0.55753    0.28765   1.00
H2       0.40912    0.51237    0.28799   1.00
C2       0.24977    0.60395    0.25267   1.00
C3       0.27489    0.58403    0.22680   1.00
O2       0.30579    0.60326    0.20959   1.00
C3       0.22383    0.58174    0.27588   1.00
H1       0.20353    0.59615    0.29523   1.00
C3a      0.27430    0.54287    0.22544   1.00
H1       0.29525    0.52798    0.20713   1.00
C3b      0.22418    0.54078    0.27536   1.00
C4       0.24959    0.52100    0.25008   1.00
O3       0.29551    0.47833    0.30463   1.00
C5       0.29669    0.61280    0.17059   1.00
H2       0.29014    0.58609    0.15310   1.00
C5       0.33231    0.63326    0.15352   1.00
H2       0.27103    0.63274    0.16916   1.00
H2       0.35419    0.61068    0.14530   1.00
H2       0.34571    0.65093    0.17729   1.00
C5       0.32238    0.65918    0.11820   1.00
H2       0.30629    0.64176    0.09609   1.00
C5       0.35977    0.67547    0.09937   1.00
H2       0.30438    0.68493    0.12702   1.00
C5       0.35463    0.50983    0.32164   1.00
H2       0.36359    0.48785    0.34385   1.00
H2       0.33432    0.53048    0.33641   1.00
C5       0.39033    0.53200    0.30576   1.00
C5       0.41499    0.54775    0.33984   1.00
H2       0.10609    0.30714    0.12955   1.00
H2       0.06258    0.31553    0.16094   1.00
H2       0.08433    0.35677    0.13311   1.00
H2       0.17253    0.46895    0.45890   1.00
H2       0.13351    0.49449    0.43107   1.00
H2       0.15302    0.44707    0.41318   1.00
H2       0.35395    0.70613    0.08788   1.00
H2       0.38405    0.67656    0.12207   1.00
H2       0.36900    0.65577    0.07421   1.00
H2       0.39837    0.54366    0.36836   1.00
H2       0.44377    0.53116    0.34130   1.00
H2       0.42107    0.58010    0.33510   1.00
C5       0.17285    0.64939    -0.13218   1.00
H2       0.15760    0.67355    -0.14745   1.00
H2       0.15150    0.63748    -0.11090   1.00
C5       0.18456    0.61784    -0.16194   1.00
C5       0.14978    0.59097    -0.17123   1.00
H2       0.20895    0.59992    -0.15015   1.00
O3       0.29801    0.69794    0.02000   1.00
C4       0.24992    0.75041    -0.02100   1.00
C3c      0.22379    0.72724    -0.04243   1.00
H1       0.20303    0.70898    -0.02725   1.00
C3d      0.27636    0.77442    -0.04135   1.00
C3       0.22433    0.72677    -0.08354   1.00
O2       0.19487    0.70713    -0.10248   1.00
C3       0.27748    0.77346    -0.08227   1.00
H1       0.29919    0.79133    -0.09657   1.00
C2       0.25155    0.74988    -0.10439   1.00
C5       0.33736    0.71009    0.02121   1.00
H2       0.34879    0.71176    0.05162   1.00
H2       0.34104    0.73932    0.00734   1.00
C5       0.36140    0.68018    -0.00129   1.00
H2       0.34929    0.67770    -0.03137   1.00
H2       0.35781    0.65119    0.01302   1.00
C5       0.40473    0.69198    -0.00262   1.00
H2       0.41694    0.69477    0.02732   1.00
H2       0.40849    0.72027    -0.01811   1.00
C5       0.42851    0.66073    -0.02445   1.00
C5       0.28936    0.83224    -0.01105   1.00
C5       0.20681    0.66850    -0.11070   1.00
H2       0.26413    0.82912    0.00912   1.00
H2       0.27984    0.84926    -0.03712   1.00
H2       0.21305    0.65256    -0.08300   1.00
H2       0.23386    0.66739    -0.12895   1.00
H2       0.19371    0.63114    -0.19030   1.00
H2       0.28765    0.88129    0.05753   1.00
H2       0.28799    0.90912    0.01237   1.00
C2       0.25267    0.74977    0.10395   1.00
C3       0.22680    0.77489    0.08403   1.00
O2       0.20959    0.80579    0.10326   1.00
C3       0.27588    0.72383    0.08174   1.00
H1       0.29523    0.70353    0.09615   1.00
C3a      0.22544    0.77430    0.04287   1.00
H1       0.20713    0.79525    0.02798   1.00
C3b      0.27536    0.72418    0.04078   1.00
C4       0.25008    0.74959    0.02100   1.00
O3       0.30463    0.79551    -0.02167   1.00
C5       0.17059    0.79669    0.11280   1.00
H2       0.15310    0.79014    0.08609   1.00
C5       0.15352    0.83231    0.13326   1.00
H2       0.16916    0.77103    0.13274   1.00
H2       0.14530    0.85419    0.11068   1.00
H2       0.17729    0.84571    0.15093   1.00
C5       0.11820    0.82238    0.15918   1.00
H2       0.09609    0.80629    0.14176   1.00
C5       0.09937    0.85977    0.17547   1.00
H2       0.12702    0.80438    0.18493   1.00
C5       0.32164    0.85463    0.00983   1.00
H2       0.34385    0.86359    -0.01215   1.00
H2       0.33641    0.83432    0.03048   1.00
C5       0.30576    0.89033    0.03200   1.00
C5       0.33984    0.91499    0.04775   1.00
H2       0.12955    0.60609    -0.19286   1.00
H2       0.16094    0.56258    -0.18447   1.00
H2       0.13311    0.58433    -0.14323   1.00
H2       0.45890    0.67253    -0.03105   1.00
H2       0.43107    0.63351    -0.00551   1.00
H2       0.41318    0.65302    -0.05293   1.00
H2       0.08788    0.85395    0.20613   1.00
H2       0.12207    0.88405    0.17656   1.00
H2       0.07421    0.86900    0.15577   1.00
H2       0.36836    0.89837    0.04366   1.00
H2       0.34130    0.94377    0.03116   1.00
H2       0.33510    0.92107    0.08010   1.00
C5       0.67285    0.35061    0.63218   1.00
H2       0.65760    0.32645    0.64745   1.00
H2       0.65150    0.36252    0.61090   1.00
C5       0.68456    0.38216    0.66194   1.00
C5       0.64978    0.40903    0.67123   1.00
H2       0.70895    0.40008    0.65015   1.00
O3       0.79801    0.30206    0.48000   1.00
C4       0.74992    0.24959    0.52100   1.00
C3c      0.72379    0.27276    0.54243   1.00
H1       0.70303    0.29102    0.52725   1.00
C3d      0.77636    0.22558    0.54135   1.00
C3       0.72433    0.27323    0.58354   1.00
O2       0.69487    0.29287    0.60248   1.00
C3       0.77748    0.22654    0.58227   1.00
H1       0.79919    0.20867    0.59657   1.00
C2       0.75155    0.25012    0.60439   1.00
C5       0.83736    0.28991    0.47879   1.00
H2       0.84879    0.28824    0.44838   1.00
H2       0.84104    0.26068    0.49266   1.00
C5       0.86140    0.31982    0.50129   1.00
H2       0.84929    0.32230    0.53137   1.00
H2       0.85781    0.34881    0.48698   1.00
C5       0.90473    0.30802    0.50262   1.00
H2       0.91694    0.30523    0.47268   1.00
H2       0.90849    0.27973    0.51811   1.00
C5       0.92851    0.33927    0.52445   1.00
C5       0.78936    0.16776    0.51105   1.00
C5       0.70681    0.33150    0.61070   1.00
H2       0.76413    0.17088    0.49088   1.00
H2       0.77984    0.15074    0.53712   1.00
H2       0.71305    0.34744    0.58300   1.00
H2       0.73386    0.33261    0.62895   1.00
H2       0.69371    0.36886    0.69030   1.00
H2       0.78765    0.11871    0.44247   1.00
H2       0.78799    0.09088    0.48763   1.00
C2       0.75267    0.25023    0.39605   1.00
C3       0.72680    0.22511    0.41597   1.00
O2       0.70959    0.19421    0.39674   1.00
C3       0.77588    0.27617    0.41826   1.00
H1       0.79523    0.29647    0.40385   1.00
C3a      0.72544    0.22570    0.45713   1.00
H1       0.70713    0.20475    0.47202   1.00
C3b      0.77536    0.27582    0.45922   1.00
C4       0.75008    0.25041    0.47900   1.00
O3       0.80463    0.20449    0.52167   1.00
C5       0.67059    0.20331    0.38720   1.00
H2       0.65310    0.20986    0.41391   1.00
C5       0.65352    0.16769    0.36674   1.00
H2       0.66916    0.22897    0.36726   1.00
H2       0.64530    0.14581    0.38932   1.00
H2       0.67729    0.15429    0.34907   1.00
C5       0.61820    0.17762    0.34082   1.00
H2       0.59609    0.19371    0.35824   1.00
C5       0.59937    0.14023    0.32453   1.00
H2       0.62702    0.19562    0.31507   1.00
C5       0.82164    0.14537    0.49017   1.00
H2       0.84385    0.13641    0.51215   1.00
H2       0.83641    0.16568    0.46952   1.00
C5       0.80576    0.10967    0.46800   1.00
C5       0.83984    0.08501    0.45225   1.00
H2       0.62955    0.39391    0.69286   1.00
H2       0.66094    0.43742    0.68447   1.00
H2       0.63311    0.41567    0.64323   1.00
H2       0.95890    0.32747    0.53105   1.00
H2       0.93107    0.36649    0.50551   1.00
H2       0.91318    0.34698    0.55293   1.00
H2       0.58788    0.14605    0.29387   1.00
H2       0.62207    0.11595    0.32344   1.00
H2       0.57421    0.13100    0.34423   1.00
H2       0.86836    0.10163    0.45634   1.00
H2       0.84130    0.05623    0.46884   1.00
H2       0.83510    0.07893    0.41990   1.00
C5       0.85061    0.63218    0.17285   1.00
H2       0.82645    0.64745    0.15760   1.00
H2       0.86252    0.61090    0.15150   1.00
C5       0.88216    0.66194    0.18456   1.00
C5       0.90903    0.67123    0.14978   1.00
H2       0.90008    0.65015    0.20895   1.00
O3       0.80206    0.48000    0.29801   1.00
C4       0.74959    0.52100    0.24992   1.00
C3c      0.77276    0.54243    0.22379   1.00
H1       0.79102    0.52725    0.20303   1.00
C3d      0.72558    0.54135    0.27636   1.00
C3       0.77323    0.58354    0.22433   1.00
O2       0.79287    0.60248    0.19487   1.00
C3       0.72654    0.58227    0.27748   1.00
H1       0.70867    0.59657    0.29919   1.00
C2       0.75012    0.60439    0.25155   1.00
C5       0.78991    0.47879    0.33736   1.00
H2       0.78824    0.44838    0.34879   1.00
H2       0.76068    0.49266    0.34104   1.00
C5       0.81982    0.50129    0.36140   1.00
H2       0.82230    0.53137    0.34929   1.00
H2       0.84881    0.48698    0.35781   1.00
C5       0.80802    0.50262    0.40473   1.00
H2       0.80523    0.47268    0.41694   1.00
H2       0.77973    0.51811    0.40849   1.00
C5       0.83927    0.52445    0.42851   1.00
C5       0.66776    0.51105    0.28936   1.00
C5       0.83150    0.61070    0.20681   1.00
H2       0.67088    0.49088    0.26413   1.00
H2       0.65074    0.53712    0.27984   1.00
H2       0.84744    0.58300    0.21305   1.00
H2       0.83261    0.62895    0.23386   1.00
H2       0.86886    0.69030    0.19371   1.00
H2       0.61871    0.44247    0.28765   1.00
H2       0.59088    0.48763    0.28799   1.00
C2       0.75023    0.39605    0.25267   1.00
C3       0.72511    0.41597    0.22680   1.00
O2       0.69421    0.39674    0.20959   1.00
C3       0.77617    0.41826    0.27588   1.00
H1       0.79647    0.40385    0.29523   1.00
C3a      0.72570    0.45713    0.22544   1.00
H1       0.70475    0.47202    0.20713   1.00
C3b      0.77582    0.45922    0.27536   1.00
C4       0.75041    0.47900    0.25008   1.00
O3       0.70449    0.52167    0.30463   1.00
C5       0.70331    0.38720    0.17059   1.00
H2       0.70986    0.41391    0.15310   1.00
C5       0.66769    0.36674    0.15352   1.00
H2       0.72897    0.36726    0.16916   1.00
H2       0.64581    0.38932    0.14530   1.00
H2       0.65429    0.34907    0.17729   1.00
C5       0.67762    0.34082    0.11820   1.00
H2       0.69371    0.35824    0.09609   1.00
C5       0.64023    0.32453    0.09937   1.00
H2       0.69562    0.31507    0.12702   1.00
C5       0.64537    0.49017    0.32164   1.00
H2       0.63641    0.51215    0.34385   1.00
H2       0.66568    0.46952    0.33641   1.00
C5       0.60967    0.46800    0.30576   1.00
C5       0.58501    0.45225    0.33984   1.00
H2       0.89391    0.69286    0.12955   1.00
H2       0.93742    0.68447    0.16094   1.00
H2       0.91567    0.64323    0.13311   1.00
H2       0.82747    0.53105    0.45890   1.00
H2       0.86649    0.50551    0.43107   1.00
H2       0.84698    0.55293    0.41318   1.00
H2       0.64605    0.29387    0.08788   1.00
H2       0.61595    0.32344    0.12207   1.00
H2       0.63100    0.34423    0.07421   1.00
H2       0.60163    0.45634    0.36836   1.00
H2       0.55623    0.46884    0.34130   1.00
H2       0.57893    0.41990    0.33510   1.00
C5       0.36782    0.17285    0.14939   1.00
H2       0.35255    0.15760    0.17355   1.00
H2       0.38910    0.15150    0.13748   1.00
C5       0.33806    0.18456    0.11784   1.00
C5       0.32877    0.14978    0.09097   1.00
H2       0.34985    0.20895    0.09992   1.00
O3       0.52000    0.29801    0.19794   1.00
C4       0.47900    0.24992    0.25041   1.00
C3c      0.45757    0.22379    0.22724   1.00
H1       0.47275    0.20303    0.20898   1.00
C3d      0.45865    0.27636    0.27442   1.00
C3       0.41646    0.22433    0.22677   1.00
O2       0.39752    0.19487    0.20713   1.00
C3       0.41773    0.27748    0.27346   1.00
H1       0.40343    0.29919    0.29133   1.00
C2       0.39561    0.25155    0.24988   1.00
C5       0.52121    0.33736    0.21009   1.00
H2       0.55162    0.34879    0.21176   1.00
H2       0.50734    0.34104    0.23932   1.00
C5       0.49871    0.36140    0.18018   1.00
H2       0.46863    0.34929    0.17770   1.00
H2       0.51302    0.35781    0.15119   1.00
C5       0.49738    0.40473    0.19198   1.00
H2       0.52732    0.41694    0.19477   1.00
H2       0.48189    0.40849    0.22027   1.00
C5       0.47555    0.42851    0.16073   1.00
C5       0.48895    0.28936    0.33224   1.00
C5       0.38930    0.20681    0.16850   1.00
H2       0.50912    0.26413    0.32912   1.00
H2       0.46288    0.27984    0.34926   1.00
H2       0.41700    0.21305    0.15256   1.00
H2       0.37105    0.23386    0.16739   1.00
H2       0.30970    0.19371    0.13114   1.00
H2       0.55753    0.28765    0.38129   1.00
H2       0.51237    0.28799    0.40912   1.00
C2       0.60395    0.25267    0.24977   1.00
C3       0.58403    0.22680    0.27489   1.00
O2       0.60326    0.20959    0.30579   1.00
C3       0.58174    0.27588    0.22383   1.00
H1       0.59615    0.29523    0.20353   1.00
C3a      0.54287    0.22544    0.27430   1.00
H1       0.52798    0.20713    0.29525   1.00
C3b      0.54078    0.27536    0.22418   1.00
C4       0.52100    0.25008    0.24959   1.00
O3       0.47833    0.30463    0.29551   1.00
C5       0.61280    0.17059    0.29669   1.00
H2       0.58609    0.15310    0.29014   1.00
C5       0.63326    0.15352    0.33231   1.00
H2       0.63274    0.16916    0.27103   1.00
H2       0.61068    0.14530    0.35419   1.00
H2       0.65093    0.17729    0.34571   1.00
C5       0.65918    0.11820    0.32238   1.00
H2       0.64176    0.09609    0.30629   1.00
C5       0.67547    0.09937    0.35977   1.00
H2       0.68493    0.12702    0.30438   1.00
C5       0.50983    0.32164    0.35463   1.00
H2       0.48785    0.34385    0.36359   1.00
H2       0.53048    0.33641    0.33432   1.00
C5       0.53200    0.30576    0.39033   1.00
C5       0.54775    0.33984    0.41499   1.00
H2       0.30714    0.12955    0.10609   1.00
H2       0.31553    0.16094    0.06258   1.00
H2       0.35677    0.13311    0.08433   1.00
H2       0.46895    0.45890    0.17253   1.00
H2       0.49449    0.43107    0.13351   1.00
H2       0.44707    0.41318    0.15302   1.00
H2       0.70613    0.08788    0.35395   1.00
H2       0.67656    0.12207    0.38405   1.00
H2       0.65577    0.07421    0.36900   1.00
H2       0.54366    0.36836    0.39837   1.00
H2       0.53116    0.34130    0.44377   1.00
H2       0.58010    0.33510    0.42107   1.00
C5       1.13218    0.17285    0.35061   1.00
H2       1.14745    0.15760    0.32645   1.00
H2       1.11090    0.15150    0.36252   1.00
C5       1.16194    0.18456    0.38216   1.00
C5       1.17123    0.14978    0.40903   1.00
H2       1.15015    0.20895    0.40008   1.00
O3       0.98000    0.29801    0.30206   1.00
C4       1.02100    0.24992    0.24959   1.00
C3c      1.04243    0.22379    0.27276   1.00
H1       1.02725    0.20303    0.29102   1.00
C3d      1.04135    0.27636    0.22558   1.00
C3       1.08354    0.22433    0.27323   1.00
O2       1.10248    0.19487    0.29287   1.00
C3       1.08227    0.27748    0.22654   1.00
H1       1.09657    0.29919    0.20867   1.00
C2       1.10439    0.25155    0.25012   1.00
C5       0.97879    0.33736    0.28991   1.00
H2       0.94838    0.34879    0.28824   1.00
H2       0.99266    0.34104    0.26068   1.00
C5       1.00129    0.36140    0.31982   1.00
H2       1.03137    0.34929    0.32230   1.00
H2       0.98698    0.35781    0.34881   1.00
C5       1.00262    0.40473    0.30802   1.00
H2       0.97268    0.41694    0.30523   1.00
H2       1.01811    0.40849    0.27973   1.00
C5       1.02445    0.42851    0.33927   1.00
C5       1.01105    0.28936    0.16776   1.00
C5       1.11070    0.20681    0.33150   1.00
H2       0.99088    0.26413    0.17088   1.00
H2       1.03712    0.27984    0.15074   1.00
H2       1.08300    0.21305    0.34744   1.00
H2       1.12895    0.23386    0.33261   1.00
H2       1.19030    0.19371    0.36886   1.00
H2       0.94247    0.28765    0.11871   1.00
H2       0.98763    0.28799    0.09088   1.00
C2       0.89605    0.25267    0.25023   1.00
C3       0.91597    0.22680    0.22511   1.00
O2       0.89674    0.20959    0.19421   1.00
C3       0.91826    0.27588    0.27617   1.00
H1       0.90385    0.29523    0.29647   1.00
C3a      0.95713    0.22544    0.22570   1.00
H1       0.97202    0.20713    0.20475   1.00
C3b      0.95922    0.27536    0.27582   1.00
C4       0.97900    0.25008    0.25041   1.00
O3       1.02167    0.30463    0.20449   1.00
C5       0.88720    0.17059    0.20331   1.00
H2       0.91391    0.15310    0.20986   1.00
C5       0.86674    0.15352    0.16769   1.00
H2       0.86726    0.16916    0.22897   1.00
H2       0.88932    0.14530    0.14581   1.00
H2       0.84907    0.17729    0.15429   1.00
C5       0.84082    0.11820    0.17762   1.00
H2       0.85824    0.09609    0.19371   1.00
C5       0.82453    0.09937    0.14023   1.00
H2       0.81507    0.12702    0.19562   1.00
C5       0.99017    0.32164    0.14537   1.00
H2       1.01215    0.34385    0.13641   1.00
H2       0.96952    0.33641    0.16568   1.00
C5       0.96800    0.30576    0.10967   1.00
C5       0.95225    0.33984    0.08501   1.00
H2       1.19286    0.12955    0.39391   1.00
H2       1.18447    0.16094    0.43742   1.00
H2       1.14323    0.13311    0.41567   1.00
H2       1.03105    0.45890    0.32747   1.00
H2       1.00551    0.43107    0.36649   1.00
H2       1.05293    0.41318    0.34698   1.00
H2       0.79387    0.08788    0.14605   1.00
H2       0.82344    0.12207    0.11595   1.00
H2       0.84423    0.07421    0.13100   1.00
H2       0.95634    0.36836    0.10163   1.00
H2       0.96884    0.34130    0.05623   1.00
H2       0.91990    0.33510    0.07893   1.00
C5       0.64939    -0.13218   0.17285   1.00
H2       0.67355    -0.14745   0.15760   1.00
H2       0.63748    -0.11090   0.15150   1.00
C5       0.61784    -0.16194   0.18456   1.00
C5       0.59097    -0.17123   0.14978   1.00
H2       0.59992    -0.15015   0.20895   1.00
O3       0.69794    0.02000    0.29801   1.00
C4       0.75041    -0.02100   0.24992   1.00
C3c      0.72724    -0.04243   0.22379   1.00
H1       0.70898    -0.02725   0.20303   1.00
C3d      0.77442    -0.04135   0.27636   1.00
C3       0.72677    -0.08354   0.22433   1.00
O2       0.70713    -0.10248   0.19487   1.00
C3       0.77346    -0.08227   0.27748   1.00
H1       0.79133    -0.09657   0.29919   1.00
C2       0.74988    -0.10439   0.25155   1.00
C5       0.71009    0.02121    0.33736   1.00
H2       0.71176    0.05162    0.34879   1.00
H2       0.73932    0.00734    0.34104   1.00
C5       0.68018    -0.00129   0.36140   1.00
H2       0.67770    -0.03137   0.34929   1.00
H2       0.65119    0.01302    0.35781   1.00
C5       0.69198    -0.00262   0.40473   1.00
H2       0.69477    0.02732    0.41694   1.00
H2       0.72027    -0.01811   0.40849   1.00
C5       0.66073    -0.02445   0.42851   1.00
C5       0.83224    -0.01105   0.28936   1.00
C5       0.66850    -0.11070   0.20681   1.00
H2       0.82912    0.00912    0.26413   1.00
H2       0.84926    -0.03712   0.27984   1.00
H2       0.65256    -0.08300   0.21305   1.00
H2       0.66739    -0.12895   0.23386   1.00
H2       0.63114    -0.19030   0.19371   1.00
H2       0.88129    0.05753    0.28765   1.00
H2       0.90912    0.01237    0.28799   1.00
C2       0.74977    0.10395    0.25267   1.00
C3       0.77489    0.08403    0.22680   1.00
O2       0.80579    0.10326    0.20959   1.00
C3       0.72383    0.08174    0.27588   1.00
H1       0.70353    0.09615    0.29523   1.00
C3a      0.77430    0.04287    0.22544   1.00
H1       0.79525    0.02798    0.20713   1.00
C3b      0.72418    0.04078    0.27536   1.00
C4       0.74959    0.02100    0.25008   1.00
O3       0.79551    -0.02167   0.30463   1.00
C5       0.79669    0.11280    0.17059   1.00
H2       0.79014    0.08609    0.15310   1.00
C5       0.83231    0.13326    0.15352   1.00
H2       0.77103    0.13274    0.16916   1.00
H2       0.85419    0.11068    0.14530   1.00
H2       0.84571    0.15093    0.17729   1.00
C5       0.82238    0.15918    0.11820   1.00
H2       0.80629    0.14176    0.09609   1.00
C5       0.85977    0.17547    0.09937   1.00
H2       0.80438    0.18493    0.12702   1.00
C5       0.85463    0.00983    0.32164   1.00
H2       0.86359    -0.01215   0.34385   1.00
H2       0.83432    0.03048    0.33641   1.00
C5       0.89033    0.03200    0.30576   1.00
C5       0.91499    0.04775    0.33984   1.00
H2       0.60609    -0.19286   0.12955   1.00
H2       0.56258    -0.18447   0.16094   1.00
H2       0.58433    -0.14323   0.13311   1.00
H2       0.67253    -0.03105   0.45890   1.00
H2       0.63351    -0.00551   0.43107   1.00
H2       0.65302    -0.05293   0.41318   1.00
H2       0.85395    0.20613    0.08788   1.00
H2       0.88405    0.17656    0.12207   1.00
H2       0.86900    0.15577    0.07421   1.00
H2       0.89837    0.04366    0.36836   1.00
H2       0.94377    0.03116    0.34130   1.00
H2       0.92107    0.08010    0.33510   1.00
C5       0.67285    0.14939    -0.13218   1.00
H2       0.65760    0.17355    -0.14745   1.00
H2       0.65150    0.13748    -0.11090   1.00
C5       0.68456    0.11784    -0.16194   1.00
C5       0.64978    0.09097    -0.17123   1.00
H2       0.70895    0.09992    -0.15015   1.00
O3       0.79801    0.19794    0.02000   1.00
C4       0.74992    0.25041    -0.02100   1.00
C3c      0.72379    0.22724    -0.04243   1.00
H1       0.70303    0.20898    -0.02725   1.00
C3d      0.77636    0.27442    -0.04135   1.00
C3       0.72433    0.22677    -0.08354   1.00
O2       0.69487    0.20713    -0.10248   1.00
C3       0.77748    0.27346    -0.08227   1.00
H1       0.79919    0.29133    -0.09657   1.00
C2       0.75155    0.24988    -0.10439   1.00
C5       0.83736    0.21009    0.02121   1.00
H2       0.84879    0.21176    0.05162   1.00
H2       0.84104    0.23932    0.00734   1.00
C5       0.86140    0.18018    -0.00129   1.00
H2       0.84929    0.17770    -0.03137   1.00
H2       0.85781    0.15119    0.01302   1.00
C5       0.90473    0.19198    -0.00262   1.00
H2       0.91694    0.19477    0.02732   1.00
H2       0.90849    0.22027    -0.01811   1.00
C5       0.92851    0.16073    -0.02445   1.00
C5       0.78936    0.33224    -0.01105   1.00
C5       0.70681    0.16850    -0.11070   1.00
H2       0.76413    0.32912    0.00912   1.00
H2       0.77984    0.34926    -0.03712   1.00
H2       0.71305    0.15256    -0.08300   1.00
H2       0.73386    0.16739    -0.12895   1.00
H2       0.69371    0.13114    -0.19030   1.00
H2       0.78765    0.38129    0.05753   1.00
H2       0.78799    0.40912    0.01237   1.00
C2       0.75267    0.24977    0.10395   1.00
C3       0.72680    0.27489    0.08403   1.00
O2       0.70959    0.30579    0.10326   1.00
C3       0.77588    0.22383    0.08174   1.00
H1       0.79523    0.20353    0.09615   1.00
C3a      0.72544    0.27430    0.04287   1.00
H1       0.70713    0.29525    0.02798   1.00
C3b      0.77536    0.22418    0.04078   1.00
C4       0.75008    0.24959    0.02100   1.00
O3       0.80463    0.29551    -0.02167   1.00
C5       0.67059    0.29669    0.11280   1.00
H2       0.65310    0.29014    0.08609   1.00
C5       0.65352    0.33231    0.13326   1.00
H2       0.66916    0.27103    0.13274   1.00
H2       0.64530    0.35419    0.11068   1.00
H2       0.67729    0.34571    0.15093   1.00
C5       0.61820    0.32238    0.15918   1.00
H2       0.59609    0.30629    0.14176   1.00
C5       0.59937    0.35977    0.17547   1.00
H2       0.62702    0.30438    0.18493   1.00
C5       0.82164    0.35463    0.00983   1.00
H2       0.84385    0.36359    -0.01215   1.00
H2       0.83641    0.33432    0.03048   1.00
C5       0.80576    0.39033    0.03200   1.00
C5       0.83984    0.41499    0.04775   1.00
H2       0.62955    0.10609    -0.19286   1.00
H2       0.66094    0.06258    -0.18447   1.00
H2       0.63311    0.08433    -0.14323   1.00
H2       0.95890    0.17253    -0.03105   1.00
H2       0.93107    0.13351    -0.00551   1.00
H2       0.91318    0.15302    -0.05293   1.00
H2       0.58788    0.35395    0.20613   1.00
H2       0.62207    0.38405    0.17656   1.00
H2       0.57421    0.36900    0.15577   1.00
H2       0.86836    0.39837    0.04366   1.00
H2       0.84130    0.44377    0.03116   1.00
H2       0.83510    0.42107    0.08010   1.00
