data_IRMOF10_SG202_Ligand9_label_l.

_audit_creation_method             'generated by an auxiliary program of Tobunporous'

_symmetry_space_group_name_H-M     'P 1'
_symmetry_Int_Tables_number        1
_symmetry_cell_setting             triclinic

_cell_length_a                    34.2800
_cell_length_b                    34.2800
_cell_length_c                    34.2800
_cell_angle_alpha                 90.0000
_cell_angle_beta                  90.0000
_cell_angle_gamma                 90.0000

loop_
_atom_site_label
_atom_site_fract_x
_atom_site_fract_y
_atom_site_fract_z
_atom_site_occupancy
O1       0.75000    0.75000    0.75000   1.00
Zn1      0.71720    0.78280    0.78280   1.00
Zn1      0.78280    0.71720    0.78280   1.00
Zn1      0.78280    0.78280    0.71720   1.00
Zn1      0.71720    0.71720    0.71720   1.00
O2       0.72650    0.77350    0.83820   1.00
O2       0.72650    0.83820    0.77350   1.00
O2       0.66180    0.77350    0.77350   1.00
O2       0.77350    0.72650    0.83820   1.00
O2       0.83820    0.72650    0.77350   1.00
O2       0.77350    0.66180    0.77350   1.00
O2       0.77350    0.83820    0.72650   1.00
O2       0.83820    0.77350    0.72650   1.00
O2       0.77350    0.77350    0.66180   1.00
O2       0.66180    0.72650    0.72650   1.00
O2       0.72650    0.66180    0.72650   1.00
O2       0.72650    0.72650    0.66180   1.00
C1       0.75000    0.75000    0.85520   1.00
C1       0.75000    0.85520    0.75000   1.00
C1       0.64480    0.75000    0.75000   1.00
C1       0.85520    0.75000    0.75000   1.00
C1       0.75000    0.64480    0.75000   1.00
C1       0.75000    0.75000    0.64480   1.00
O1       0.25000    0.25000    0.75000   1.00
Zn1      0.21720    0.28280    0.78280   1.00
Zn1      0.28280    0.21720    0.78280   1.00
Zn1      0.28280    0.28280    0.71720   1.00
Zn1      0.21720    0.21720    0.71720   1.00
O2       0.22650    0.27350    0.83820   1.00
O2       0.22650    0.33820    0.77350   1.00
O2       0.16180    0.27350    0.77350   1.00
O2       0.27350    0.22650    0.83820   1.00
O2       0.33820    0.22650    0.77350   1.00
O2       0.27350    0.16180    0.77350   1.00
O2       0.27350    0.33820    0.72650   1.00
O2       0.33820    0.27350    0.72650   1.00
O2       0.27350    0.27350    0.66180   1.00
O2       0.16180    0.22650    0.72650   1.00
O2       0.22650    0.16180    0.72650   1.00
O2       0.22650    0.22650    0.66180   1.00
C1       0.25000    0.25000    0.85520   1.00
C1       0.25000    0.35520    0.75000   1.00
C1       0.14480    0.25000    0.75000   1.00
C1       0.35520    0.25000    0.75000   1.00
C1       0.25000    0.14480    0.75000   1.00
C1       0.25000    0.25000    0.64480   1.00
O1       0.25000    0.75000    0.25000   1.00
Zn1      0.21720    0.78280    0.28280   1.00
Zn1      0.28280    0.71720    0.28280   1.00
Zn1      0.28280    0.78280    0.21720   1.00
Zn1      0.21720    0.71720    0.21720   1.00
O2       0.22650    0.77350    0.33820   1.00
O2       0.22650    0.83820    0.27350   1.00
O2       0.16180    0.77350    0.27350   1.00
O2       0.27350    0.72650    0.33820   1.00
O2       0.33820    0.72650    0.27350   1.00
O2       0.27350    0.66180    0.27350   1.00
O2       0.27350    0.83820    0.22650   1.00
O2       0.33820    0.77350    0.22650   1.00
O2       0.27350    0.77350    0.16180   1.00
O2       0.16180    0.72650    0.22650   1.00
O2       0.22650    0.66180    0.22650   1.00
O2       0.22650    0.72650    0.16180   1.00
C1       0.25000    0.75000    0.35520   1.00
C1       0.25000    0.85520    0.25000   1.00
C1       0.14480    0.75000    0.25000   1.00
C1       0.35520    0.75000    0.25000   1.00
C1       0.25000    0.64480    0.25000   1.00
C1       0.25000    0.75000    0.14480   1.00
O1       0.75000    0.25000    0.25000   1.00
Zn1      0.71720    0.28280    0.28280   1.00
Zn1      0.78280    0.21720    0.28280   1.00
Zn1      0.78280    0.28280    0.21720   1.00
Zn1      0.71720    0.21720    0.21720   1.00
O2       0.72650    0.27350    0.33820   1.00
O2       0.72650    0.33820    0.27350   1.00
O2       0.66180    0.27350    0.27350   1.00
O2       0.77350    0.22650    0.33820   1.00
O2       0.83820    0.22650    0.27350   1.00
O2       0.77350    0.16180    0.27350   1.00
O2       0.77350    0.33820    0.22650   1.00
O2       0.83820    0.27350    0.22650   1.00
O2       0.77350    0.27350    0.16180   1.00
O2       0.66180    0.22650    0.22650   1.00
O2       0.72650    0.16180    0.22650   1.00
O2       0.72650    0.22650    0.16180   1.00
C1       0.75000    0.25000    0.35520   1.00
C1       0.75000    0.35520    0.25000   1.00
C1       0.64480    0.25000    0.25000   1.00
C1       0.85520    0.25000    0.25000   1.00
C1       0.75000    0.14480    0.25000   1.00
C1       0.75000    0.25000    0.14480   1.00
O1       0.25000    0.25000    0.25000   1.00
Zn1      0.28280    0.21720    0.21720   1.00
Zn1      0.21720    0.28280    0.21720   1.00
Zn1      0.21720    0.21720    0.28280   1.00
Zn1      0.28280    0.28280    0.28280   1.00
O2       0.27350    0.22650    0.16180   1.00
O2       0.27350    0.16180    0.22650   1.00
O2       0.33820    0.22650    0.22650   1.00
O2       0.22650    0.27350    0.16180   1.00
O2       0.16180    0.27350    0.22650   1.00
O2       0.22650    0.33820    0.22650   1.00
O2       0.22650    0.16180    0.27350   1.00
O2       0.16180    0.22650    0.27350   1.00
O2       0.22650    0.22650    0.33820   1.00
O2       0.33820    0.27350    0.27350   1.00
O2       0.27350    0.33820    0.27350   1.00
O2       0.27350    0.27350    0.33820   1.00
C1       0.25000    0.25000    0.14480   1.00
C1       0.25000    0.14480    0.25000   1.00
C1       0.35520    0.25000    0.25000   1.00
C1       0.14480    0.25000    0.25000   1.00
C1       0.25000    0.35520    0.25000   1.00
C1       0.25000    0.25000    0.35520   1.00
O1       0.75000    0.75000    0.25000   1.00
Zn1      0.78280    0.71720    0.21720   1.00
Zn1      0.71720    0.78280    0.21720   1.00
Zn1      0.71720    0.71720    0.28280   1.00
Zn1      0.78280    0.78280    0.28280   1.00
O2       0.77350    0.72650    0.16180   1.00
O2       0.77350    0.66180    0.22650   1.00
O2       0.83820    0.72650    0.22650   1.00
O2       0.72650    0.77350    0.16180   1.00
O2       0.66180    0.77350    0.22650   1.00
O2       0.72650    0.83820    0.22650   1.00
O2       0.72650    0.66180    0.27350   1.00
O2       0.66180    0.72650    0.27350   1.00
O2       0.72650    0.72650    0.33820   1.00
O2       0.83820    0.77350    0.27350   1.00
O2       0.77350    0.83820    0.27350   1.00
O2       0.77350    0.77350    0.33820   1.00
C1       0.75000    0.75000    0.14480   1.00
C1       0.75000    0.64480    0.25000   1.00
C1       0.85520    0.75000    0.25000   1.00
C1       0.64480    0.75000    0.25000   1.00
C1       0.75000    0.85520    0.25000   1.00
C1       0.75000    0.75000    0.35520   1.00
O1       0.75000    0.25000    0.75000   1.00
Zn1      0.78280    0.21720    0.71720   1.00
Zn1      0.71720    0.28280    0.71720   1.00
Zn1      0.71720    0.21720    0.78280   1.00
Zn1      0.78280    0.28280    0.78280   1.00
O2       0.77350    0.22650    0.66180   1.00
O2       0.77350    0.16180    0.72650   1.00
O2       0.83820    0.22650    0.72650   1.00
O2       0.72650    0.27350    0.66180   1.00
O2       0.66180    0.27350    0.72650   1.00
O2       0.72650    0.33820    0.72650   1.00
O2       0.72650    0.16180    0.77350   1.00
O2       0.66180    0.22650    0.77350   1.00
O2       0.72650    0.22650    0.83820   1.00
O2       0.83820    0.27350    0.77350   1.00
O2       0.77350    0.33820    0.77350   1.00
O2       0.77350    0.27350    0.83820   1.00
C1       0.75000    0.25000    0.64480   1.00
C1       0.75000    0.14480    0.75000   1.00
C1       0.85520    0.25000    0.75000   1.00
C1       0.64480    0.25000    0.75000   1.00
C1       0.75000    0.35520    0.75000   1.00
C1       0.75000    0.25000    0.85520   1.00
O1       0.25000    0.75000    0.75000   1.00
Zn1      0.28280    0.71720    0.71720   1.00
Zn1      0.21720    0.78280    0.71720   1.00
Zn1      0.21720    0.71720    0.78280   1.00
Zn1      0.28280    0.78280    0.78280   1.00
O2       0.27350    0.72650    0.66180   1.00
O2       0.27350    0.66180    0.72650   1.00
O2       0.33820    0.72650    0.72650   1.00
O2       0.22650    0.77350    0.66180   1.00
O2       0.16180    0.77350    0.72650   1.00
O2       0.22650    0.83820    0.72650   1.00
O2       0.22650    0.66180    0.77350   1.00
O2       0.16180    0.72650    0.77350   1.00
O2       0.22650    0.72650    0.83820   1.00
O2       0.33820    0.77350    0.77350   1.00
O2       0.27350    0.83820    0.77350   1.00
O2       0.27350    0.77350    0.83820   1.00
C1       0.25000    0.75000    0.64480   1.00
C1       0.25000    0.64480    0.75000   1.00
C1       0.35520    0.75000    0.75000   1.00
C1       0.14480    0.75000    0.75000   1.00
C1       0.25000    0.85520    0.75000   1.00
C1       0.25000    0.75000    0.85520   1.00
C4       0.75007    0.74923    0.97917   1.00
C4       0.74993    0.75077    1.02083   1.00
C3       0.73427    0.71715    0.95846   1.00
C3       0.71785    0.73757    1.04321   1.00
C3       0.76523    0.78025    0.95643   1.00
C3       0.78258    0.76481    1.04187   1.00
C2       0.74877    0.74721    0.89487   1.00
C2       0.75103    0.75254    1.10514   1.00
C3       0.73371    0.71622    0.91715   1.00
C3       0.71844    0.73853    1.08449   1.00
C3       0.76457    0.77917    0.91514   1.00
C3a      0.78330    0.76583    1.08328   1.00
H1       0.72257    0.69242    0.97425   1.00
H1       0.69189    0.72685    1.02875   1.00
H1       0.72144    0.69113    0.90240   1.00
H1       0.69322    0.72832    1.10056   1.00
H1       0.77626    0.80356    0.89882   1.00
C5       0.81909    0.78091    1.10380   1.00
H1       0.80805    0.77496    1.02622   1.00
H1       0.77700    0.80592    0.97059   1.00
H2       0.81507    0.78059    1.13599   1.00
H2       0.84396    0.76122    1.09705   1.00
N1       0.82789    0.82076    1.09125   1.00
C6       0.80494    0.85223    1.09644   1.00
C6       0.86048    0.83278    1.07288   1.00
C6       0.82295    0.88475    1.08102   1.00
C6       0.85827    0.87238    1.06604   1.00
H3       0.77663    0.85166    1.11049   1.00
H3       0.88456    0.81399    1.06484   1.00
H3       0.81161    0.91419    1.08076   1.00
H3       0.88001    0.89025    1.05180   1.00
C4       0.74923    0.97917    0.75007   1.00
C4       0.75077    1.02083    0.74993   1.00
C3       0.71715    0.95846    0.73427   1.00
C3       0.73757    1.04321    0.71785   1.00
C3       0.78025    0.95643    0.76523   1.00
C3       0.76481    1.04187    0.78258   1.00
C2       0.74721    0.89487    0.74877   1.00
C2       0.75254    1.10514    0.75103   1.00
C3       0.71622    0.91715    0.73371   1.00
C3       0.73853    1.08449    0.71844   1.00
C3       0.77917    0.91514    0.76457   1.00
C3a      0.76583    1.08328    0.78330   1.00
H1       0.69242    0.97425    0.72257   1.00
H1       0.72685    1.02875    0.69189   1.00
H1       0.69113    0.90240    0.72144   1.00
H1       0.72832    1.10056    0.69322   1.00
H1       0.80356    0.89882    0.77626   1.00
C5       0.78091    1.10380    0.81909   1.00
H1       0.77496    1.02622    0.80805   1.00
H1       0.80592    0.97059    0.77700   1.00
H2       0.78059    1.13599    0.81507   1.00
H2       0.76122    1.09705    0.84396   1.00
N1       0.82076    1.09125    0.82789   1.00
C6       0.85223    1.09644    0.80494   1.00
C6       0.83278    1.07288    0.86048   1.00
C6       0.88475    1.08102    0.82295   1.00
C6       0.87238    1.06604    0.85827   1.00
H3       0.85166    1.11049    0.77663   1.00
H3       0.81399    1.06484    0.88456   1.00
H3       0.91419    1.08076    0.81161   1.00
H3       0.89025    1.05180    0.88001   1.00
C4       0.52083    0.75007    0.75077   1.00
C4       0.47917    0.74993    0.74923   1.00
C3       0.54154    0.73427    0.78285   1.00
C3       0.45679    0.71785    0.76243   1.00
C3       0.54357    0.76523    0.71975   1.00
C3       0.45813    0.78258    0.73519   1.00
C2       0.60513    0.74877    0.75279   1.00
C2       0.39486    0.75103    0.74746   1.00
C3       0.58285    0.73371    0.78378   1.00
C3       0.41551    0.71844    0.76147   1.00
C3       0.58486    0.76457    0.72083   1.00
C3a      0.41672    0.78330    0.73417   1.00
H1       0.52575    0.72257    0.80758   1.00
H1       0.47125    0.69189    0.77315   1.00
H1       0.59760    0.72144    0.80887   1.00
H1       0.39944    0.69322    0.77168   1.00
H1       0.60118    0.77626    0.69644   1.00
C5       0.39620    0.81909    0.71909   1.00
H1       0.47378    0.80805    0.72504   1.00
H1       0.52941    0.77700    0.69408   1.00
H2       0.36401    0.81507    0.71941   1.00
H2       0.40295    0.84396    0.73878   1.00
N1       0.40875    0.82789    0.67924   1.00
C6       0.40356    0.80494    0.64777   1.00
C6       0.42712    0.86048    0.66722   1.00
C6       0.41898    0.82295    0.61525   1.00
C6       0.43396    0.85827    0.62762   1.00
H3       0.38951    0.77663    0.64834   1.00
H3       0.43516    0.88456    0.68601   1.00
H3       0.41924    0.81161    0.58581   1.00
H3       0.44820    0.88001    0.60975   1.00
C4       0.97917    0.75007    0.74923   1.00
C4       1.02083    0.74993    0.75077   1.00
C3       0.95846    0.73427    0.71715   1.00
C3       1.04321    0.71785    0.73757   1.00
C3       0.95643    0.76523    0.78025   1.00
C3       1.04187    0.78258    0.76481   1.00
C2       0.89487    0.74877    0.74721   1.00
C2       1.10514    0.75103    0.75254   1.00
C3       0.91715    0.73371    0.71622   1.00
C3       1.08449    0.71844    0.73853   1.00
C3       0.91514    0.76457    0.77917   1.00
C3a      1.08328    0.78330    0.76583   1.00
H1       0.97425    0.72257    0.69242   1.00
H1       1.02875    0.69189    0.72685   1.00
H1       0.90240    0.72144    0.69113   1.00
H1       1.10056    0.69322    0.72832   1.00
H1       0.89882    0.77626    0.80356   1.00
C5       1.10380    0.81909    0.78091   1.00
H1       1.02622    0.80805    0.77496   1.00
H1       0.97059    0.77700    0.80592   1.00
H2       1.13599    0.81507    0.78059   1.00
H2       1.09705    0.84396    0.76122   1.00
N1       1.09125    0.82789    0.82076   1.00
C6       1.09644    0.80494    0.85223   1.00
C6       1.07288    0.86048    0.83278   1.00
C6       1.08102    0.82295    0.88475   1.00
C6       1.06604    0.85827    0.87238   1.00
H3       1.11049    0.77663    0.85166   1.00
H3       1.06484    0.88456    0.81399   1.00
H3       1.08076    0.81161    0.91419   1.00
H3       1.05180    0.88001    0.89025   1.00
C4       0.75077    0.52083    0.75007   1.00
C4       0.74923    0.47917    0.74993   1.00
C3       0.78285    0.54154    0.73427   1.00
C3       0.76243    0.45679    0.71785   1.00
C3       0.71975    0.54357    0.76523   1.00
C3       0.73519    0.45813    0.78258   1.00
C2       0.75279    0.60513    0.74877   1.00
C2       0.74746    0.39486    0.75103   1.00
C3       0.78378    0.58285    0.73371   1.00
C3       0.76147    0.41551    0.71844   1.00
C3       0.72083    0.58486    0.76457   1.00
C3a      0.73417    0.41672    0.78330   1.00
H1       0.80758    0.52575    0.72257   1.00
H1       0.77315    0.47125    0.69189   1.00
H1       0.80887    0.59760    0.72144   1.00
H1       0.77168    0.39944    0.69322   1.00
H1       0.69644    0.60118    0.77626   1.00
C5       0.71909    0.39620    0.81909   1.00
H1       0.72504    0.47378    0.80805   1.00
H1       0.69408    0.52941    0.77700   1.00
H2       0.71941    0.36401    0.81507   1.00
H2       0.73878    0.40295    0.84396   1.00
N1       0.67924    0.40875    0.82789   1.00
C6       0.64777    0.40356    0.80494   1.00
C6       0.66722    0.42712    0.86048   1.00
C6       0.61525    0.41898    0.82295   1.00
C6       0.62762    0.43396    0.85827   1.00
H3       0.64834    0.38951    0.77663   1.00
H3       0.68601    0.43516    0.88456   1.00
H3       0.58581    0.41924    0.81161   1.00
H3       0.60975    0.44820    0.88001   1.00
C4       0.75007    0.75077    0.52083   1.00
C4       0.74993    0.74923    0.47917   1.00
C3       0.73427    0.78285    0.54154   1.00
C3       0.71785    0.76243    0.45679   1.00
C3       0.76523    0.71975    0.54357   1.00
C3       0.78258    0.73519    0.45813   1.00
C2       0.74877    0.75279    0.60513   1.00
C2       0.75103    0.74746    0.39486   1.00
C3       0.73371    0.78378    0.58285   1.00
C3       0.71844    0.76147    0.41551   1.00
C3       0.76457    0.72083    0.58486   1.00
C3a      0.78330    0.73417    0.41672   1.00
H1       0.72257    0.80758    0.52575   1.00
H1       0.69189    0.77315    0.47125   1.00
H1       0.72144    0.80887    0.59760   1.00
H1       0.69322    0.77168    0.39944   1.00
H1       0.77626    0.69644    0.60118   1.00
C5       0.81909    0.71909    0.39620   1.00
H1       0.80805    0.72504    0.47378   1.00
H1       0.77700    0.69408    0.52941   1.00
H2       0.81507    0.71941    0.36401   1.00
H2       0.84396    0.73878    0.40295   1.00
N1       0.82789    0.67924    0.40875   1.00
C6       0.80494    0.64777    0.40356   1.00
C6       0.86048    0.66722    0.42712   1.00
C6       0.82295    0.61525    0.41898   1.00
C6       0.85827    0.62762    0.43396   1.00
H3       0.77663    0.64834    0.38951   1.00
H3       0.88456    0.68601    0.43516   1.00
H3       0.81161    0.58581    0.41924   1.00
H3       0.88001    0.60975    0.44820   1.00
C4       0.25007    0.24923    0.97917   1.00
C4       0.24993    0.25077    1.02083   1.00
C3       0.23427    0.21715    0.95846   1.00
C3       0.21785    0.23757    1.04321   1.00
C3       0.26523    0.28025    0.95643   1.00
C3       0.28258    0.26481    1.04187   1.00
C2       0.24877    0.24721    0.89487   1.00
C2       0.25103    0.25254    1.10514   1.00
C3       0.23371    0.21622    0.91715   1.00
C3       0.21844    0.23853    1.08449   1.00
C3       0.26457    0.27917    0.91514   1.00
C3a      0.28330    0.26583    1.08328   1.00
H1       0.22257    0.19242    0.97425   1.00
H1       0.19189    0.22685    1.02875   1.00
H1       0.22144    0.19113    0.90240   1.00
H1       0.19322    0.22832    1.10056   1.00
H1       0.27626    0.30356    0.89882   1.00
C5       0.31909    0.28091    1.10380   1.00
H1       0.30805    0.27496    1.02622   1.00
H1       0.27700    0.30592    0.97059   1.00
H2       0.31507    0.28059    1.13599   1.00
H2       0.34396    0.26122    1.09705   1.00
N1       0.32789    0.32076    1.09125   1.00
C6       0.30494    0.35223    1.09644   1.00
C6       0.36048    0.33278    1.07288   1.00
C6       0.32295    0.38475    1.08102   1.00
C6       0.35827    0.37238    1.06604   1.00
H3       0.27663    0.35166    1.11049   1.00
H3       0.38456    0.31399    1.06484   1.00
H3       0.31161    0.41419    1.08076   1.00
H3       0.38001    0.39025    1.05180   1.00
C4       0.24923    0.47917    0.75007   1.00
C4       0.25077    0.52083    0.74993   1.00
C3       0.21715    0.45846    0.73427   1.00
C3       0.23757    0.54321    0.71785   1.00
C3       0.28025    0.45643    0.76523   1.00
C3       0.26481    0.54187    0.78258   1.00
C2       0.24721    0.39487    0.74877   1.00
C2       0.25254    0.60514    0.75103   1.00
C3       0.21622    0.41715    0.73371   1.00
C3       0.23853    0.58449    0.71844   1.00
C3       0.27917    0.41514    0.76457   1.00
C3a      0.26583    0.58328    0.78330   1.00
H1       0.19242    0.47425    0.72257   1.00
H1       0.22685    0.52875    0.69189   1.00
H1       0.19113    0.40240    0.72144   1.00
H1       0.22832    0.60056    0.69322   1.00
H1       0.30356    0.39882    0.77626   1.00
C5       0.28091    0.60380    0.81909   1.00
H1       0.27496    0.52622    0.80805   1.00
H1       0.30592    0.47059    0.77700   1.00
H2       0.28059    0.63599    0.81507   1.00
H2       0.26122    0.59705    0.84396   1.00
N1       0.32076    0.59125    0.82789   1.00
C6       0.35223    0.59644    0.80494   1.00
C6       0.33278    0.57288    0.86048   1.00
C6       0.38475    0.58102    0.82295   1.00
C6       0.37238    0.56604    0.85827   1.00
H3       0.35166    0.61049    0.77663   1.00
H3       0.31399    0.56484    0.88456   1.00
H3       0.41419    0.58076    0.81161   1.00
H3       0.39025    0.55180    0.88001   1.00
C4       0.02083    0.25007    0.75077   1.00
C4       -0.02083   0.24993    0.74923   1.00
C3       0.04154    0.23427    0.78285   1.00
C3       -0.04321   0.21785    0.76243   1.00
C3       0.04357    0.26523    0.71975   1.00
C3       -0.04187   0.28258    0.73519   1.00
C2       0.10513    0.24877    0.75279   1.00
C2       -0.10514   0.25103    0.74746   1.00
C3       0.08285    0.23371    0.78378   1.00
C3       -0.08449   0.21844    0.76147   1.00
C3       0.08486    0.26457    0.72083   1.00
C3a      -0.08328   0.28330    0.73417   1.00
H1       0.02575    0.22257    0.80758   1.00
H1       -0.02875   0.19189    0.77315   1.00
H1       0.09760    0.22144    0.80887   1.00
H1       -0.10056   0.19322    0.77168   1.00
H1       0.10118    0.27626    0.69644   1.00
C5       -0.10380   0.31909    0.71909   1.00
H1       -0.02622   0.30805    0.72504   1.00
H1       0.02941    0.27700    0.69408   1.00
H2       -0.13599   0.31507    0.71941   1.00
H2       -0.09705   0.34396    0.73878   1.00
N1       -0.09125   0.32789    0.67924   1.00
C6       -0.09644   0.30494    0.64777   1.00
C6       -0.07288   0.36048    0.66722   1.00
C6       -0.08102   0.32295    0.61525   1.00
C6       -0.06604   0.35827    0.62762   1.00
H3       -0.11049   0.27663    0.64834   1.00
H3       -0.06484   0.38456    0.68601   1.00
H3       -0.08076   0.31161    0.58581   1.00
H3       -0.05180   0.38001    0.60975   1.00
C4       0.47917    0.25007    0.74923   1.00
C4       0.52083    0.24993    0.75077   1.00
C3       0.45846    0.23427    0.71715   1.00
C3       0.54321    0.21785    0.73757   1.00
C3       0.45643    0.26523    0.78025   1.00
C3       0.54187    0.28258    0.76481   1.00
C2       0.39487    0.24877    0.74721   1.00
C2       0.60514    0.25103    0.75254   1.00
C3       0.41715    0.23371    0.71622   1.00
C3       0.58449    0.21844    0.73853   1.00
C3       0.41514    0.26457    0.77917   1.00
C3a      0.58328    0.28330    0.76583   1.00
H1       0.47425    0.22257    0.69242   1.00
H1       0.52875    0.19189    0.72685   1.00
H1       0.40240    0.22144    0.69113   1.00
H1       0.60056    0.19322    0.72832   1.00
H1       0.39882    0.27626    0.80356   1.00
C5       0.60380    0.31909    0.78091   1.00
H1       0.52622    0.30805    0.77496   1.00
H1       0.47059    0.27700    0.80592   1.00
H2       0.63599    0.31507    0.78059   1.00
H2       0.59705    0.34396    0.76122   1.00
N1       0.59125    0.32789    0.82076   1.00
C6       0.59644    0.30494    0.85223   1.00
C6       0.57288    0.36048    0.83278   1.00
C6       0.58102    0.32295    0.88475   1.00
C6       0.56604    0.35827    0.87238   1.00
H3       0.61049    0.27663    0.85166   1.00
H3       0.56484    0.38456    0.81399   1.00
H3       0.58076    0.31161    0.91419   1.00
H3       0.55180    0.38001    0.89025   1.00
C4       0.25077    0.02083    0.75007   1.00
C4       0.24923    -0.02083   0.74993   1.00
C3       0.28285    0.04154    0.73427   1.00
C3       0.26243    -0.04321   0.71785   1.00
C3       0.21975    0.04357    0.76523   1.00
C3       0.23519    -0.04187   0.78258   1.00
C2       0.25279    0.10513    0.74877   1.00
C2       0.24746    -0.10514   0.75103   1.00
C3       0.28378    0.08285    0.73371   1.00
C3       0.26147    -0.08449   0.71844   1.00
C3       0.22083    0.08486    0.76457   1.00
C3a      0.23417    -0.08328   0.78330   1.00
H1       0.30758    0.02575    0.72257   1.00
H1       0.27315    -0.02875   0.69189   1.00
H1       0.30887    0.09760    0.72144   1.00
H1       0.27168    -0.10056   0.69322   1.00
H1       0.19644    0.10118    0.77626   1.00
C5       0.21909    -0.10380   0.81909   1.00
H1       0.22504    -0.02622   0.80805   1.00
H1       0.19408    0.02941    0.77700   1.00
H2       0.21941    -0.13599   0.81507   1.00
H2       0.23878    -0.09705   0.84396   1.00
N1       0.17924    -0.09125   0.82789   1.00
C6       0.14777    -0.09644   0.80494   1.00
C6       0.16722    -0.07288   0.86048   1.00
C6       0.11525    -0.08102   0.82295   1.00
C6       0.12762    -0.06604   0.85827   1.00
H3       0.14834    -0.11049   0.77663   1.00
H3       0.18601    -0.06484   0.88456   1.00
H3       0.08581    -0.08076   0.81161   1.00
H3       0.10975    -0.05180   0.88001   1.00
C4       0.25007    0.25077    0.52083   1.00
C4       0.24993    0.24923    0.47917   1.00
C3       0.23427    0.28285    0.54154   1.00
C3       0.21785    0.26243    0.45679   1.00
C3       0.26523    0.21975    0.54357   1.00
C3       0.28258    0.23519    0.45813   1.00
C2       0.24877    0.25279    0.60513   1.00
C2       0.25103    0.24746    0.39486   1.00
C3       0.23371    0.28378    0.58285   1.00
C3       0.21844    0.26147    0.41551   1.00
C3       0.26457    0.22083    0.58486   1.00
C3a      0.28330    0.23417    0.41672   1.00
H1       0.22257    0.30758    0.52575   1.00
H1       0.19189    0.27315    0.47125   1.00
H1       0.22144    0.30887    0.59760   1.00
H1       0.19322    0.27168    0.39944   1.00
H1       0.27626    0.19644    0.60118   1.00
C5       0.31909    0.21909    0.39620   1.00
H1       0.30805    0.22504    0.47378   1.00
H1       0.27700    0.19408    0.52941   1.00
H2       0.31507    0.21941    0.36401   1.00
H2       0.34396    0.23878    0.40295   1.00
N1       0.32789    0.17924    0.40875   1.00
C6       0.30494    0.14777    0.40356   1.00
C6       0.36048    0.16722    0.42712   1.00
C6       0.32295    0.11525    0.41898   1.00
C6       0.35827    0.12762    0.43396   1.00
H3       0.27663    0.14834    0.38951   1.00
H3       0.38456    0.18601    0.43516   1.00
H3       0.31161    0.08581    0.41924   1.00
H3       0.38001    0.10975    0.44820   1.00
C4       0.25007    0.74923    0.47917   1.00
C4       0.24993    0.75077    0.52083   1.00
C3       0.23427    0.71715    0.45846   1.00
C3       0.21785    0.73757    0.54321   1.00
C3       0.26523    0.78025    0.45643   1.00
C3       0.28258    0.76481    0.54187   1.00
C2       0.24877    0.74721    0.39487   1.00
C2       0.25103    0.75254    0.60514   1.00
C3       0.23371    0.71622    0.41715   1.00
C3       0.21844    0.73853    0.58449   1.00
C3       0.26457    0.77917    0.41514   1.00
C3a      0.28330    0.76583    0.58328   1.00
H1       0.22257    0.69242    0.47425   1.00
H1       0.19189    0.72685    0.52875   1.00
H1       0.22144    0.69113    0.40240   1.00
H1       0.19322    0.72832    0.60056   1.00
H1       0.27626    0.80356    0.39882   1.00
C5       0.31909    0.78091    0.60380   1.00
H1       0.30805    0.77496    0.52622   1.00
H1       0.27700    0.80592    0.47059   1.00
H2       0.31507    0.78059    0.63599   1.00
H2       0.34396    0.76122    0.59705   1.00
N1       0.32789    0.82076    0.59125   1.00
C6       0.30494    0.85223    0.59644   1.00
C6       0.36048    0.83278    0.57288   1.00
C6       0.32295    0.88475    0.58102   1.00
C6       0.35827    0.87238    0.56604   1.00
H3       0.27663    0.85166    0.61049   1.00
H3       0.38456    0.81399    0.56484   1.00
H3       0.31161    0.91419    0.58076   1.00
H3       0.38001    0.89025    0.55180   1.00
C4       0.24923    0.97917    0.25007   1.00
C4       0.25077    1.02083    0.24993   1.00
C3       0.21715    0.95846    0.23427   1.00
C3       0.23757    1.04321    0.21785   1.00
C3       0.28025    0.95643    0.26523   1.00
C3       0.26481    1.04187    0.28258   1.00
C2       0.24721    0.89487    0.24877   1.00
C2       0.25254    1.10514    0.25103   1.00
C3       0.21622    0.91715    0.23371   1.00
C3       0.23853    1.08449    0.21844   1.00
C3       0.27917    0.91514    0.26457   1.00
C3a      0.26583    1.08328    0.28330   1.00
H1       0.19242    0.97425    0.22257   1.00
H1       0.22685    1.02875    0.19189   1.00
H1       0.19113    0.90240    0.22144   1.00
H1       0.22832    1.10056    0.19322   1.00
H1       0.30356    0.89882    0.27626   1.00
C5       0.28091    1.10380    0.31909   1.00
H1       0.27496    1.02622    0.30805   1.00
H1       0.30592    0.97059    0.27700   1.00
H2       0.28059    1.13599    0.31507   1.00
H2       0.26122    1.09705    0.34396   1.00
N1       0.32076    1.09125    0.32789   1.00
C6       0.35223    1.09644    0.30494   1.00
C6       0.33278    1.07288    0.36048   1.00
C6       0.38475    1.08102    0.32295   1.00
C6       0.37238    1.06604    0.35827   1.00
H3       0.35166    1.11049    0.27663   1.00
H3       0.31399    1.06484    0.38456   1.00
H3       0.41419    1.08076    0.31161   1.00
H3       0.39025    1.05180    0.38001   1.00
C4       0.02083    0.75007    0.25077   1.00
C4       -0.02083   0.74993    0.24923   1.00
C3       0.04154    0.73427    0.28285   1.00
C3       -0.04321   0.71785    0.26243   1.00
C3       0.04357    0.76523    0.21975   1.00
C3       -0.04187   0.78258    0.23519   1.00
C2       0.10513    0.74877    0.25279   1.00
C2       -0.10514   0.75103    0.24746   1.00
C3       0.08285    0.73371    0.28378   1.00
C3       -0.08449   0.71844    0.26147   1.00
C3       0.08486    0.76457    0.22083   1.00
C3a      -0.08328   0.78330    0.23417   1.00
H1       0.02575    0.72257    0.30758   1.00
H1       -0.02875   0.69189    0.27315   1.00
H1       0.09760    0.72144    0.30887   1.00
H1       -0.10056   0.69322    0.27168   1.00
H1       0.10118    0.77626    0.19644   1.00
C5       -0.10380   0.81909    0.21909   1.00
H1       -0.02622   0.80805    0.22504   1.00
H1       0.02941    0.77700    0.19408   1.00
H2       -0.13599   0.81507    0.21941   1.00
H2       -0.09705   0.84396    0.23878   1.00
N1       -0.09125   0.82789    0.17924   1.00
C6       -0.09644   0.80494    0.14777   1.00
C6       -0.07288   0.86048    0.16722   1.00
C6       -0.08102   0.82295    0.11525   1.00
C6       -0.06604   0.85827    0.12762   1.00
H3       -0.11049   0.77663    0.14834   1.00
H3       -0.06484   0.88456    0.18601   1.00
H3       -0.08076   0.81161    0.08581   1.00
H3       -0.05180   0.88001    0.10975   1.00
C4       0.47917    0.75007    0.24923   1.00
C4       0.52083    0.74993    0.25077   1.00
C3       0.45846    0.73427    0.21715   1.00
C3       0.54321    0.71785    0.23757   1.00
C3       0.45643    0.76523    0.28025   1.00
C3       0.54187    0.78258    0.26481   1.00
C2       0.39487    0.74877    0.24721   1.00
C2       0.60514    0.75103    0.25254   1.00
C3       0.41715    0.73371    0.21622   1.00
C3       0.58449    0.71844    0.23853   1.00
C3       0.41514    0.76457    0.27917   1.00
C3a      0.58328    0.78330    0.26583   1.00
H1       0.47425    0.72257    0.19242   1.00
H1       0.52875    0.69189    0.22685   1.00
H1       0.40240    0.72144    0.19113   1.00
H1       0.60056    0.69322    0.22832   1.00
H1       0.39882    0.77626    0.30356   1.00
C5       0.60380    0.81909    0.28091   1.00
H1       0.52622    0.80805    0.27496   1.00
H1       0.47059    0.77700    0.30592   1.00
H2       0.63599    0.81507    0.28059   1.00
H2       0.59705    0.84396    0.26122   1.00
N1       0.59125    0.82789    0.32076   1.00
C6       0.59644    0.80494    0.35223   1.00
C6       0.57288    0.86048    0.33278   1.00
C6       0.58102    0.82295    0.38475   1.00
C6       0.56604    0.85827    0.37238   1.00
H3       0.61049    0.77663    0.35166   1.00
H3       0.56484    0.88456    0.31399   1.00
H3       0.58076    0.81161    0.41419   1.00
H3       0.55180    0.88001    0.39025   1.00
C4       0.25077    0.52083    0.25007   1.00
C4       0.24923    0.47917    0.24993   1.00
C3       0.28285    0.54154    0.23427   1.00
C3       0.26243    0.45679    0.21785   1.00
C3       0.21975    0.54357    0.26523   1.00
C3       0.23519    0.45813    0.28258   1.00
C2       0.25279    0.60513    0.24877   1.00
C2       0.24746    0.39486    0.25103   1.00
C3       0.28378    0.58285    0.23371   1.00
C3       0.26147    0.41551    0.21844   1.00
C3       0.22083    0.58486    0.26457   1.00
C3a      0.23417    0.41672    0.28330   1.00
H1       0.30758    0.52575    0.22257   1.00
H1       0.27315    0.47125    0.19189   1.00
H1       0.30887    0.59760    0.22144   1.00
H1       0.27168    0.39944    0.19322   1.00
H1       0.19644    0.60118    0.27626   1.00
C5       0.21909    0.39620    0.31909   1.00
H1       0.22504    0.47378    0.30805   1.00
H1       0.19408    0.52941    0.27700   1.00
H2       0.21941    0.36401    0.31507   1.00
H2       0.23878    0.40295    0.34396   1.00
N1       0.17924    0.40875    0.32789   1.00
C6       0.14777    0.40356    0.30494   1.00
C6       0.16722    0.42712    0.36048   1.00
C6       0.11525    0.41898    0.32295   1.00
C6       0.12762    0.43396    0.35827   1.00
H3       0.14834    0.38951    0.27663   1.00
H3       0.18601    0.43516    0.38456   1.00
H3       0.08581    0.41924    0.31161   1.00
H3       0.10975    0.44820    0.38001   1.00
C4       0.25007    0.75077    0.02083   1.00
C4       0.24993    0.74923    -0.02083   1.00
C3       0.23427    0.78285    0.04154   1.00
C3       0.21785    0.76243    -0.04321   1.00
C3       0.26523    0.71975    0.04357   1.00
C3       0.28258    0.73519    -0.04187   1.00
C2       0.24877    0.75279    0.10513   1.00
C2       0.25103    0.74746    -0.10514   1.00
C3       0.23371    0.78378    0.08285   1.00
C3       0.21844    0.76147    -0.08449   1.00
C3       0.26457    0.72083    0.08486   1.00
C3a      0.28330    0.73417    -0.08328   1.00
H1       0.22257    0.80758    0.02575   1.00
H1       0.19189    0.77315    -0.02875   1.00
H1       0.22144    0.80887    0.09760   1.00
H1       0.19322    0.77168    -0.10056   1.00
H1       0.27626    0.69644    0.10118   1.00
C5       0.31909    0.71909    -0.10380   1.00
H1       0.30805    0.72504    -0.02622   1.00
H1       0.27700    0.69408    0.02941   1.00
H2       0.31507    0.71941    -0.13599   1.00
H2       0.34396    0.73878    -0.09705   1.00
N1       0.32789    0.67924    -0.09125   1.00
C6       0.30494    0.64777    -0.09644   1.00
C6       0.36048    0.66722    -0.07288   1.00
C6       0.32295    0.61525    -0.08102   1.00
C6       0.35827    0.62762    -0.06604   1.00
H3       0.27663    0.64834    -0.11049   1.00
H3       0.38456    0.68601    -0.06484   1.00
H3       0.31161    0.58581    -0.08076   1.00
H3       0.38001    0.60975    -0.05180   1.00
C4       0.75007    0.24923    0.47917   1.00
C4       0.74993    0.25077    0.52083   1.00
C3       0.73427    0.21715    0.45846   1.00
C3       0.71785    0.23757    0.54321   1.00
C3       0.76523    0.28025    0.45643   1.00
C3       0.78258    0.26481    0.54187   1.00
C2       0.74877    0.24721    0.39487   1.00
C2       0.75103    0.25254    0.60514   1.00
C3       0.73371    0.21622    0.41715   1.00
C3       0.71844    0.23853    0.58449   1.00
C3       0.76457    0.27917    0.41514   1.00
C3a      0.78330    0.26583    0.58328   1.00
H1       0.72257    0.19242    0.47425   1.00
H1       0.69189    0.22685    0.52875   1.00
H1       0.72144    0.19113    0.40240   1.00
H1       0.69322    0.22832    0.60056   1.00
H1       0.77626    0.30356    0.39882   1.00
C5       0.81909    0.28091    0.60380   1.00
H1       0.80805    0.27496    0.52622   1.00
H1       0.77700    0.30592    0.47059   1.00
H2       0.81507    0.28059    0.63599   1.00
H2       0.84396    0.26122    0.59705   1.00
N1       0.82789    0.32076    0.59125   1.00
C6       0.80494    0.35223    0.59644   1.00
C6       0.86048    0.33278    0.57288   1.00
C6       0.82295    0.38475    0.58102   1.00
C6       0.85827    0.37238    0.56604   1.00
H3       0.77663    0.35166    0.61049   1.00
H3       0.88456    0.31399    0.56484   1.00
H3       0.81161    0.41419    0.58076   1.00
H3       0.88001    0.39025    0.55180   1.00
C4       0.74923    0.47917    0.25007   1.00
C4       0.75077    0.52083    0.24993   1.00
C3       0.71715    0.45846    0.23427   1.00
C3       0.73757    0.54321    0.21785   1.00
C3       0.78025    0.45643    0.26523   1.00
C3       0.76481    0.54187    0.28258   1.00
C2       0.74721    0.39487    0.24877   1.00
C2       0.75254    0.60514    0.25103   1.00
C3       0.71622    0.41715    0.23371   1.00
C3       0.73853    0.58449    0.21844   1.00
C3       0.77917    0.41514    0.26457   1.00
C3a      0.76583    0.58328    0.28330   1.00
H1       0.69242    0.47425    0.22257   1.00
H1       0.72685    0.52875    0.19189   1.00
H1       0.69113    0.40240    0.22144   1.00
H1       0.72832    0.60056    0.19322   1.00
H1       0.80356    0.39882    0.27626   1.00
C5       0.78091    0.60380    0.31909   1.00
H1       0.77496    0.52622    0.30805   1.00
H1       0.80592    0.47059    0.27700   1.00
H2       0.78059    0.63599    0.31507   1.00
H2       0.76122    0.59705    0.34396   1.00
N1       0.82076    0.59125    0.32789   1.00
C6       0.85223    0.59644    0.30494   1.00
C6       0.83278    0.57288    0.36048   1.00
C6       0.88475    0.58102    0.32295   1.00
C6       0.87238    0.56604    0.35827   1.00
H3       0.85166    0.61049    0.27663   1.00
H3       0.81399    0.56484    0.38456   1.00
H3       0.91419    0.58076    0.31161   1.00
H3       0.89025    0.55180    0.38001   1.00
C4       0.52083    0.25007    0.25077   1.00
C4       0.47917    0.24993    0.24923   1.00
C3       0.54154    0.23427    0.28285   1.00
C3       0.45679    0.21785    0.26243   1.00
C3       0.54357    0.26523    0.21975   1.00
C3       0.45813    0.28258    0.23519   1.00
C2       0.60513    0.24877    0.25279   1.00
C2       0.39486    0.25103    0.24746   1.00
C3       0.58285    0.23371    0.28378   1.00
C3       0.41551    0.21844    0.26147   1.00
C3       0.58486    0.26457    0.22083   1.00
C3a      0.41672    0.28330    0.23417   1.00
H1       0.52575    0.22257    0.30758   1.00
H1       0.47125    0.19189    0.27315   1.00
H1       0.59760    0.22144    0.30887   1.00
H1       0.39944    0.19322    0.27168   1.00
H1       0.60118    0.27626    0.19644   1.00
C5       0.39620    0.31909    0.21909   1.00
H1       0.47378    0.30805    0.22504   1.00
H1       0.52941    0.27700    0.19408   1.00
H2       0.36401    0.31507    0.21941   1.00
H2       0.40295    0.34396    0.23878   1.00
N1       0.40875    0.32789    0.17924   1.00
C6       0.40356    0.30494    0.14777   1.00
C6       0.42712    0.36048    0.16722   1.00
C6       0.41898    0.32295    0.11525   1.00
C6       0.43396    0.35827    0.12762   1.00
H3       0.38951    0.27663    0.14834   1.00
H3       0.43516    0.38456    0.18601   1.00
H3       0.41924    0.31161    0.08581   1.00
H3       0.44820    0.38001    0.10975   1.00
C4       0.97917    0.25007    0.24923   1.00
C4       1.02083    0.24993    0.25077   1.00
C3       0.95846    0.23427    0.21715   1.00
C3       1.04321    0.21785    0.23757   1.00
C3       0.95643    0.26523    0.28025   1.00
C3       1.04187    0.28258    0.26481   1.00
C2       0.89487    0.24877    0.24721   1.00
C2       1.10514    0.25103    0.25254   1.00
C3       0.91715    0.23371    0.21622   1.00
C3       1.08449    0.21844    0.23853   1.00
C3       0.91514    0.26457    0.27917   1.00
C3a      1.08328    0.28330    0.26583   1.00
H1       0.97425    0.22257    0.19242   1.00
H1       1.02875    0.19189    0.22685   1.00
H1       0.90240    0.22144    0.19113   1.00
H1       1.10056    0.19322    0.22832   1.00
H1       0.89882    0.27626    0.30356   1.00
C5       1.10380    0.31909    0.28091   1.00
H1       1.02622    0.30805    0.27496   1.00
H1       0.97059    0.27700    0.30592   1.00
H2       1.13599    0.31507    0.28059   1.00
H2       1.09705    0.34396    0.26122   1.00
N1       1.09125    0.32789    0.32076   1.00
C6       1.09644    0.30494    0.35223   1.00
C6       1.07288    0.36048    0.33278   1.00
C6       1.08102    0.32295    0.38475   1.00
C6       1.06604    0.35827    0.37238   1.00
H3       1.11049    0.27663    0.35166   1.00
H3       1.06484    0.38456    0.31399   1.00
H3       1.08076    0.31161    0.41419   1.00
H3       1.05180    0.38001    0.39025   1.00
C4       0.75077    0.02083    0.25007   1.00
C4       0.74923    -0.02083   0.24993   1.00
C3       0.78285    0.04154    0.23427   1.00
C3       0.76243    -0.04321   0.21785   1.00
C3       0.71975    0.04357    0.26523   1.00
C3       0.73519    -0.04187   0.28258   1.00
C2       0.75279    0.10513    0.24877   1.00
C2       0.74746    -0.10514   0.25103   1.00
C3       0.78378    0.08285    0.23371   1.00
C3       0.76147    -0.08449   0.21844   1.00
C3       0.72083    0.08486    0.26457   1.00
C3a      0.73417    -0.08328   0.28330   1.00
H1       0.80758    0.02575    0.22257   1.00
H1       0.77315    -0.02875   0.19189   1.00
H1       0.80887    0.09760    0.22144   1.00
H1       0.77168    -0.10056   0.19322   1.00
H1       0.69644    0.10118    0.27626   1.00
C5       0.71909    -0.10380   0.31909   1.00
H1       0.72504    -0.02622   0.30805   1.00
H1       0.69408    0.02941    0.27700   1.00
H2       0.71941    -0.13599   0.31507   1.00
H2       0.73878    -0.09705   0.34396   1.00
N1       0.67924    -0.09125   0.32789   1.00
C6       0.64777    -0.09644   0.30494   1.00
C6       0.66722    -0.07288   0.36048   1.00
C6       0.61525    -0.08102   0.32295   1.00
C6       0.62762    -0.06604   0.35827   1.00
H3       0.64834    -0.11049   0.27663   1.00
H3       0.68601    -0.06484   0.38456   1.00
H3       0.58581    -0.08076   0.31161   1.00
H3       0.60975    -0.05180   0.38001   1.00
C4       0.75007    0.25077    0.02083   1.00
C4       0.74993    0.24923    -0.02083   1.00
C3       0.73427    0.28285    0.04154   1.00
C3       0.71785    0.26243    -0.04321   1.00
C3       0.76523    0.21975    0.04357   1.00
C3       0.78258    0.23519    -0.04187   1.00
C2       0.74877    0.25279    0.10513   1.00
C2       0.75103    0.24746    -0.10514   1.00
C3       0.73371    0.28378    0.08285   1.00
C3       0.71844    0.26147    -0.08449   1.00
C3       0.76457    0.22083    0.08486   1.00
C3a      0.78330    0.23417    -0.08328   1.00
H1       0.72257    0.30758    0.02575   1.00
H1       0.69189    0.27315    -0.02875   1.00
H1       0.72144    0.30887    0.09760   1.00
H1       0.69322    0.27168    -0.10056   1.00
H1       0.77626    0.19644    0.10118   1.00
C5       0.81909    0.21909    -0.10380   1.00
H1       0.80805    0.22504    -0.02622   1.00
H1       0.77700    0.19408    0.02941   1.00
H2       0.81507    0.21941    -0.13599   1.00
H2       0.84396    0.23878    -0.09705   1.00
N1       0.82789    0.17924    -0.09125   1.00
C6       0.80494    0.14777    -0.09644   1.00
C6       0.86048    0.16722    -0.07288   1.00
C6       0.82295    0.11525    -0.08102   1.00
C6       0.85827    0.12762    -0.06604   1.00
H3       0.77663    0.14834    -0.11049   1.00
H3       0.88456    0.18601    -0.06484   1.00
H3       0.81161    0.08581    -0.08076   1.00
H3       0.88001    0.10975    -0.05180   1.00
