data_IRMOF10_SG202_Ligand4_label_u.

_audit_creation_method             'generated by an auxiliary program of Tobunporous'

_symmetry_space_group_name_H-M     'P 1'
_symmetry_Int_Tables_number        1
_symmetry_cell_setting             triclinic

_cell_length_a                    34.2800
_cell_length_b                    34.2800
_cell_length_c                    34.2800
_cell_angle_alpha                 90.0000
_cell_angle_beta                  90.0000
_cell_angle_gamma                 90.0000

loop_
_atom_site_label
_atom_site_fract_x
_atom_site_fract_y
_atom_site_fract_z
_atom_site_occupancy
O1       0.75000    0.75000    0.75000   1.00
Zn1      0.71720    0.78280    0.78280   1.00
Zn1      0.78280    0.71720    0.78280   1.00
Zn1      0.78280    0.78280    0.71720   1.00
Zn1      0.71720    0.71720    0.71720   1.00
O2       0.72650    0.77350    0.83820   1.00
O2       0.72650    0.83820    0.77350   1.00
O2       0.66180    0.77350    0.77350   1.00
O2       0.77350    0.72650    0.83820   1.00
O2       0.83820    0.72650    0.77350   1.00
O2       0.77350    0.66180    0.77350   1.00
O2       0.77350    0.83820    0.72650   1.00
O2       0.83820    0.77350    0.72650   1.00
O2       0.77350    0.77350    0.66180   1.00
O2       0.66180    0.72650    0.72650   1.00
O2       0.72650    0.66180    0.72650   1.00
O2       0.72650    0.72650    0.66180   1.00
C1       0.75000    0.75000    0.85520   1.00
C1       0.75000    0.85520    0.75000   1.00
C1       0.64480    0.75000    0.75000   1.00
C1       0.85520    0.75000    0.75000   1.00
C1       0.75000    0.64480    0.75000   1.00
C1       0.75000    0.75000    0.64480   1.00
O1       0.25000    0.25000    0.75000   1.00
Zn1      0.21720    0.28280    0.78280   1.00
Zn1      0.28280    0.21720    0.78280   1.00
Zn1      0.28280    0.28280    0.71720   1.00
Zn1      0.21720    0.21720    0.71720   1.00
O2       0.22650    0.27350    0.83820   1.00
O2       0.22650    0.33820    0.77350   1.00
O2       0.16180    0.27350    0.77350   1.00
O2       0.27350    0.22650    0.83820   1.00
O2       0.33820    0.22650    0.77350   1.00
O2       0.27350    0.16180    0.77350   1.00
O2       0.27350    0.33820    0.72650   1.00
O2       0.33820    0.27350    0.72650   1.00
O2       0.27350    0.27350    0.66180   1.00
O2       0.16180    0.22650    0.72650   1.00
O2       0.22650    0.16180    0.72650   1.00
O2       0.22650    0.22650    0.66180   1.00
C1       0.25000    0.25000    0.85520   1.00
C1       0.25000    0.35520    0.75000   1.00
C1       0.14480    0.25000    0.75000   1.00
C1       0.35520    0.25000    0.75000   1.00
C1       0.25000    0.14480    0.75000   1.00
C1       0.25000    0.25000    0.64480   1.00
O1       0.25000    0.75000    0.25000   1.00
Zn1      0.21720    0.78280    0.28280   1.00
Zn1      0.28280    0.71720    0.28280   1.00
Zn1      0.28280    0.78280    0.21720   1.00
Zn1      0.21720    0.71720    0.21720   1.00
O2       0.22650    0.77350    0.33820   1.00
O2       0.22650    0.83820    0.27350   1.00
O2       0.16180    0.77350    0.27350   1.00
O2       0.27350    0.72650    0.33820   1.00
O2       0.33820    0.72650    0.27350   1.00
O2       0.27350    0.66180    0.27350   1.00
O2       0.27350    0.83820    0.22650   1.00
O2       0.33820    0.77350    0.22650   1.00
O2       0.27350    0.77350    0.16180   1.00
O2       0.16180    0.72650    0.22650   1.00
O2       0.22650    0.66180    0.22650   1.00
O2       0.22650    0.72650    0.16180   1.00
C1       0.25000    0.75000    0.35520   1.00
C1       0.25000    0.85520    0.25000   1.00
C1       0.14480    0.75000    0.25000   1.00
C1       0.35520    0.75000    0.25000   1.00
C1       0.25000    0.64480    0.25000   1.00
C1       0.25000    0.75000    0.14480   1.00
O1       0.75000    0.25000    0.25000   1.00
Zn1      0.71720    0.28280    0.28280   1.00
Zn1      0.78280    0.21720    0.28280   1.00
Zn1      0.78280    0.28280    0.21720   1.00
Zn1      0.71720    0.21720    0.21720   1.00
O2       0.72650    0.27350    0.33820   1.00
O2       0.72650    0.33820    0.27350   1.00
O2       0.66180    0.27350    0.27350   1.00
O2       0.77350    0.22650    0.33820   1.00
O2       0.83820    0.22650    0.27350   1.00
O2       0.77350    0.16180    0.27350   1.00
O2       0.77350    0.33820    0.22650   1.00
O2       0.83820    0.27350    0.22650   1.00
O2       0.77350    0.27350    0.16180   1.00
O2       0.66180    0.22650    0.22650   1.00
O2       0.72650    0.16180    0.22650   1.00
O2       0.72650    0.22650    0.16180   1.00
C1       0.75000    0.25000    0.35520   1.00
C1       0.75000    0.35520    0.25000   1.00
C1       0.64480    0.25000    0.25000   1.00
C1       0.85520    0.25000    0.25000   1.00
C1       0.75000    0.14480    0.25000   1.00
C1       0.75000    0.25000    0.14480   1.00
O1       0.25000    0.25000    0.25000   1.00
Zn1      0.28280    0.21720    0.21720   1.00
Zn1      0.21720    0.28280    0.21720   1.00
Zn1      0.21720    0.21720    0.28280   1.00
Zn1      0.28280    0.28280    0.28280   1.00
O2       0.27350    0.22650    0.16180   1.00
O2       0.27350    0.16180    0.22650   1.00
O2       0.33820    0.22650    0.22650   1.00
O2       0.22650    0.27350    0.16180   1.00
O2       0.16180    0.27350    0.22650   1.00
O2       0.22650    0.33820    0.22650   1.00
O2       0.22650    0.16180    0.27350   1.00
O2       0.16180    0.22650    0.27350   1.00
O2       0.22650    0.22650    0.33820   1.00
O2       0.33820    0.27350    0.27350   1.00
O2       0.27350    0.33820    0.27350   1.00
O2       0.27350    0.27350    0.33820   1.00
C1       0.25000    0.25000    0.14480   1.00
C1       0.25000    0.14480    0.25000   1.00
C1       0.35520    0.25000    0.25000   1.00
C1       0.14480    0.25000    0.25000   1.00
C1       0.25000    0.35520    0.25000   1.00
C1       0.25000    0.25000    0.35520   1.00
O1       0.75000    0.75000    0.25000   1.00
Zn1      0.78280    0.71720    0.21720   1.00
Zn1      0.71720    0.78280    0.21720   1.00
Zn1      0.71720    0.71720    0.28280   1.00
Zn1      0.78280    0.78280    0.28280   1.00
O2       0.77350    0.72650    0.16180   1.00
O2       0.77350    0.66180    0.22650   1.00
O2       0.83820    0.72650    0.22650   1.00
O2       0.72650    0.77350    0.16180   1.00
O2       0.66180    0.77350    0.22650   1.00
O2       0.72650    0.83820    0.22650   1.00
O2       0.72650    0.66180    0.27350   1.00
O2       0.66180    0.72650    0.27350   1.00
O2       0.72650    0.72650    0.33820   1.00
O2       0.83820    0.77350    0.27350   1.00
O2       0.77350    0.83820    0.27350   1.00
O2       0.77350    0.77350    0.33820   1.00
C1       0.75000    0.75000    0.14480   1.00
C1       0.75000    0.64480    0.25000   1.00
C1       0.85520    0.75000    0.25000   1.00
C1       0.64480    0.75000    0.25000   1.00
C1       0.75000    0.85520    0.25000   1.00
C1       0.75000    0.75000    0.35520   1.00
O1       0.75000    0.25000    0.75000   1.00
Zn1      0.78280    0.21720    0.71720   1.00
Zn1      0.71720    0.28280    0.71720   1.00
Zn1      0.71720    0.21720    0.78280   1.00
Zn1      0.78280    0.28280    0.78280   1.00
O2       0.77350    0.22650    0.66180   1.00
O2       0.77350    0.16180    0.72650   1.00
O2       0.83820    0.22650    0.72650   1.00
O2       0.72650    0.27350    0.66180   1.00
O2       0.66180    0.27350    0.72650   1.00
O2       0.72650    0.33820    0.72650   1.00
O2       0.72650    0.16180    0.77350   1.00
O2       0.66180    0.22650    0.77350   1.00
O2       0.72650    0.22650    0.83820   1.00
O2       0.83820    0.27350    0.77350   1.00
O2       0.77350    0.33820    0.77350   1.00
O2       0.77350    0.27350    0.83820   1.00
C1       0.75000    0.25000    0.64480   1.00
C1       0.75000    0.14480    0.75000   1.00
C1       0.85520    0.25000    0.75000   1.00
C1       0.64480    0.25000    0.75000   1.00
C1       0.75000    0.35520    0.75000   1.00
C1       0.75000    0.25000    0.85520   1.00
O1       0.25000    0.75000    0.75000   1.00
Zn1      0.28280    0.71720    0.71720   1.00
Zn1      0.21720    0.78280    0.71720   1.00
Zn1      0.21720    0.71720    0.78280   1.00
Zn1      0.28280    0.78280    0.78280   1.00
O2       0.27350    0.72650    0.66180   1.00
O2       0.27350    0.66180    0.72650   1.00
O2       0.33820    0.72650    0.72650   1.00
O2       0.22650    0.77350    0.66180   1.00
O2       0.16180    0.77350    0.72650   1.00
O2       0.22650    0.83820    0.72650   1.00
O2       0.22650    0.66180    0.77350   1.00
O2       0.16180    0.72650    0.77350   1.00
O2       0.22650    0.72650    0.83820   1.00
O2       0.33820    0.77350    0.77350   1.00
O2       0.27350    0.83820    0.77350   1.00
O2       0.27350    0.77350    0.83820   1.00
C1       0.25000    0.75000    0.64480   1.00
C1       0.25000    0.64480    0.75000   1.00
C1       0.35520    0.75000    0.75000   1.00
C1       0.14480    0.75000    0.75000   1.00
C1       0.25000    0.85520    0.75000   1.00
C1       0.25000    0.75000    0.85520   1.00
C4       0.75346    0.75331    0.98025   1.00
C4       0.75499    0.75305    1.02191   1.00
C3       0.73058    0.78075    0.95897   1.00
C3       0.73711    0.78262    1.04504   1.00
C3       0.77542    0.72524    0.95854   1.00
C3       0.77509    0.72230    1.04170   1.00
C2       0.75185    0.75510    0.89595   1.00
C2       0.75642    0.75153    1.10622   1.00
C3       0.72990    0.78180    0.91811   1.00
C3       0.73759    0.78184    1.08591   1.00
C3       0.77411    0.72744    0.91696   1.00
C3       0.77472    0.72246    1.08336   1.00
H1       0.71325    0.80076    0.97237   1.00
H1       0.72339    0.80604    1.03306   1.00
C5       0.79771    0.69587    0.97835   1.00
C5       0.79504    0.69261    1.01998   1.00
H1       0.71293    0.80241    0.90451   1.00
H1       0.72401    0.80395    1.10091   1.00
H1       0.78954    0.70815    0.90052   1.00
H1       0.78846    0.70095    1.09848   1.00
C6       0.82404    0.66903    0.95515   1.00
C6       0.81261    0.65805    1.04119   1.00
H2       0.83978    0.68613    0.93345   1.00
H2       0.79200    0.64775    1.06310   1.00
H2       0.84780    0.65773    0.97286   1.00
H2       0.81505    0.63270    1.02228   1.00
C6       0.80173    0.63395    0.93606   1.00
C6       0.85359    0.66702    1.05942   1.00
H2       0.77461    0.64442    0.92292   1.00
H2       0.85287    0.69547    1.07383   1.00
C6       0.82395    0.60940    0.90459   1.00
C6       0.87058    0.63674    1.08911   1.00
H2       0.79267    0.61432    0.95949   1.00
H2       0.87437    0.67027    1.03546   1.00
C6       0.83245    0.63370    0.86735   1.00
C6       0.84599    0.63494    1.12708   1.00
C6       0.86277    0.59279    0.92074   1.00
C6       0.87321    0.59537    1.07107   1.00
C6       0.79778    0.57445    0.89245   1.00
C6       0.91247    0.64969    1.10054   1.00
H2       0.80568    0.64637    0.85558   1.00
H2       0.84304    0.66383    1.14020   1.00
H2       0.85270    0.65745    0.87330   1.00
H2       0.81679    0.62370    1.12154   1.00
H2       0.84549    0.61564    0.84459   1.00
H2       0.85954    0.61581    1.14863   1.00
H2       0.87664    0.57348    0.89955   1.00
H2       0.88764    0.57511    1.09098   1.00
H2       0.88333    0.61617    0.92725   1.00
H2       0.84425    0.58374    1.06494   1.00
H2       0.85771    0.57623    0.94745   1.00
H2       0.88970    0.59596    1.04385   1.00
H2       0.77008    0.58461    0.88042   1.00
H2       0.91221    0.67865    1.11383   1.00
H2       0.81197    0.55653    0.87025   1.00
H2       0.92551    0.62954    1.12149   1.00
H2       0.79140    0.55571    0.91739   1.00
H2       0.93149    0.65076    1.07502   1.00
C4       0.75331    0.98025    0.75346   1.00
C4       0.75305    1.02191    0.75499   1.00
C3       0.78075    0.95897    0.73058   1.00
C3       0.78262    1.04504    0.73711   1.00
C3       0.72524    0.95854    0.77542   1.00
C3       0.72230    1.04170    0.77509   1.00
C2       0.75510    0.89595    0.75185   1.00
C2       0.75153    1.10622    0.75642   1.00
C3       0.78180    0.91811    0.72990   1.00
C3       0.78184    1.08591    0.73759   1.00
C3       0.72744    0.91696    0.77411   1.00
C3       0.72246    1.08336    0.77472   1.00
H1       0.80076    0.97237    0.71325   1.00
H1       0.80604    1.03306    0.72339   1.00
C5       0.69587    0.97835    0.79771   1.00
C5       0.69261    1.01998    0.79504   1.00
H1       0.80241    0.90451    0.71293   1.00
H1       0.80395    1.10091    0.72401   1.00
H1       0.70815    0.90052    0.78954   1.00
H1       0.70095    1.09848    0.78846   1.00
C6       0.66903    0.95515    0.82404   1.00
C6       0.65805    1.04119    0.81261   1.00
H2       0.68613    0.93345    0.83978   1.00
H2       0.64775    1.06310    0.79200   1.00
H2       0.65773    0.97286    0.84780   1.00
H2       0.63270    1.02228    0.81505   1.00
C6       0.63395    0.93606    0.80173   1.00
C6       0.66702    1.05942    0.85359   1.00
H2       0.64442    0.92292    0.77461   1.00
H2       0.69547    1.07383    0.85287   1.00
C6       0.60940    0.90459    0.82395   1.00
C6       0.63674    1.08911    0.87058   1.00
H2       0.61432    0.95949    0.79267   1.00
H2       0.67027    1.03546    0.87437   1.00
C6       0.63370    0.86735    0.83245   1.00
C6       0.63494    1.12708    0.84599   1.00
C6       0.59279    0.92074    0.86277   1.00
C6       0.59537    1.07107    0.87321   1.00
C6       0.57445    0.89245    0.79778   1.00
C6       0.64969    1.10054    0.91247   1.00
H2       0.64637    0.85558    0.80568   1.00
H2       0.66383    1.14020    0.84304   1.00
H2       0.65745    0.87330    0.85270   1.00
H2       0.62370    1.12154    0.81679   1.00
H2       0.61564    0.84459    0.84549   1.00
H2       0.61581    1.14863    0.85954   1.00
H2       0.57348    0.89955    0.87664   1.00
H2       0.57511    1.09098    0.88764   1.00
H2       0.61617    0.92725    0.88333   1.00
H2       0.58374    1.06494    0.84425   1.00
H2       0.57623    0.94745    0.85771   1.00
H2       0.59596    1.04385    0.88970   1.00
H2       0.58461    0.88042    0.77008   1.00
H2       0.67865    1.11383    0.91221   1.00
H2       0.55653    0.87025    0.81197   1.00
H2       0.62954    1.12149    0.92551   1.00
H2       0.55571    0.91739    0.79140   1.00
H2       0.65076    1.07502    0.93149   1.00
C4       0.51975    0.75346    0.74669   1.00
C4       0.47809    0.75499    0.74695   1.00
C3       0.54103    0.73058    0.71925   1.00
C3       0.45496    0.73711    0.71738   1.00
C3       0.54146    0.77542    0.77476   1.00
C3       0.45830    0.77509    0.77770   1.00
C2       0.60405    0.75185    0.74490   1.00
C2       0.39378    0.75642    0.74847   1.00
C3       0.58189    0.72990    0.71820   1.00
C3       0.41409    0.73759    0.71816   1.00
C3       0.58304    0.77411    0.77256   1.00
C3       0.41664    0.77472    0.77754   1.00
H1       0.52763    0.71325    0.69924   1.00
H1       0.46694    0.72339    0.69396   1.00
C5       0.52165    0.79771    0.80413   1.00
C5       0.48002    0.79504    0.80739   1.00
H1       0.59549    0.71293    0.69759   1.00
H1       0.39909    0.72401    0.69605   1.00
H1       0.59948    0.78954    0.79185   1.00
H1       0.40152    0.78846    0.79905   1.00
C6       0.54485    0.82404    0.83097   1.00
C6       0.45881    0.81261    0.84195   1.00
H2       0.56655    0.83978    0.81387   1.00
H2       0.43690    0.79200    0.85225   1.00
H2       0.52714    0.84780    0.84227   1.00
H2       0.47772    0.81505    0.86730   1.00
C6       0.56394    0.80173    0.86605   1.00
C6       0.44058    0.85359    0.83298   1.00
H2       0.57708    0.77461    0.85558   1.00
H2       0.42617    0.85287    0.80453   1.00
C6       0.59541    0.82395    0.89060   1.00
C6       0.41089    0.87058    0.86326   1.00
H2       0.54051    0.79267    0.88568   1.00
H2       0.46454    0.87437    0.82973   1.00
C6       0.63265    0.83245    0.86630   1.00
C6       0.37292    0.84599    0.86506   1.00
C6       0.57926    0.86277    0.90721   1.00
C6       0.42893    0.87321    0.90463   1.00
C6       0.60755    0.79778    0.92555   1.00
C6       0.39946    0.91247    0.85031   1.00
H2       0.64442    0.80568    0.85363   1.00
H2       0.35980    0.84304    0.83617   1.00
H2       0.62670    0.85270    0.84255   1.00
H2       0.37846    0.81679    0.87630   1.00
H2       0.65541    0.84549    0.88436   1.00
H2       0.35137    0.85954    0.88419   1.00
H2       0.60045    0.87664    0.92652   1.00
H2       0.40902    0.88764    0.92489   1.00
H2       0.57275    0.88333    0.88383   1.00
H2       0.43506    0.84425    0.91626   1.00
H2       0.55255    0.85771    0.92377   1.00
H2       0.45615    0.88970    0.90404   1.00
H2       0.61958    0.77008    0.91539   1.00
H2       0.38617    0.91221    0.82135   1.00
H2       0.62975    0.81197    0.94347   1.00
H2       0.37851    0.92551    0.87046   1.00
H2       0.58261    0.79140    0.94429   1.00
H2       0.42498    0.93149    0.84924   1.00
C4       0.98025    0.75346    0.75331   1.00
C4       1.02191    0.75499    0.75305   1.00
C3       0.95897    0.73058    0.78075   1.00
C3       1.04504    0.73711    0.78262   1.00
C3       0.95854    0.77542    0.72524   1.00
C3       1.04170    0.77509    0.72230   1.00
C2       0.89595    0.75185    0.75510   1.00
C2       1.10622    0.75642    0.75153   1.00
C3       0.91811    0.72990    0.78180   1.00
C3       1.08591    0.73759    0.78184   1.00
C3       0.91696    0.77411    0.72744   1.00
C3       1.08336    0.77472    0.72246   1.00
H1       0.97237    0.71325    0.80076   1.00
H1       1.03306    0.72339    0.80604   1.00
C5       0.97835    0.79771    0.69587   1.00
C5       1.01998    0.79504    0.69261   1.00
H1       0.90451    0.71293    0.80241   1.00
H1       1.10091    0.72401    0.80395   1.00
H1       0.90052    0.78954    0.70815   1.00
H1       1.09848    0.78846    0.70095   1.00
C6       0.95515    0.82404    0.66903   1.00
C6       1.04119    0.81261    0.65805   1.00
H2       0.93345    0.83978    0.68613   1.00
H2       1.06310    0.79200    0.64775   1.00
H2       0.97286    0.84780    0.65773   1.00
H2       1.02228    0.81505    0.63270   1.00
C6       0.93606    0.80173    0.63395   1.00
C6       1.05942    0.85359    0.66702   1.00
H2       0.92292    0.77461    0.64442   1.00
H2       1.07383    0.85287    0.69547   1.00
C6       0.90459    0.82395    0.60940   1.00
C6       1.08911    0.87058    0.63674   1.00
H2       0.95949    0.79267    0.61432   1.00
H2       1.03546    0.87437    0.67027   1.00
C6       0.86735    0.83245    0.63370   1.00
C6       1.12708    0.84599    0.63494   1.00
C6       0.92074    0.86277    0.59279   1.00
C6       1.07107    0.87321    0.59537   1.00
C6       0.89245    0.79778    0.57445   1.00
C6       1.10054    0.91247    0.64969   1.00
H2       0.85558    0.80568    0.64637   1.00
H2       1.14020    0.84304    0.66383   1.00
H2       0.87330    0.85270    0.65745   1.00
H2       1.12154    0.81679    0.62370   1.00
H2       0.84459    0.84549    0.61564   1.00
H2       1.14863    0.85954    0.61581   1.00
H2       0.89955    0.87664    0.57348   1.00
H2       1.09098    0.88764    0.57511   1.00
H2       0.92725    0.88333    0.61617   1.00
H2       1.06494    0.84425    0.58374   1.00
H2       0.94745    0.85771    0.57623   1.00
H2       1.04385    0.88970    0.59596   1.00
H2       0.88042    0.77008    0.58461   1.00
H2       1.11383    0.91221    0.67865   1.00
H2       0.87025    0.81197    0.55653   1.00
H2       1.12149    0.92551    0.62954   1.00
H2       0.91739    0.79140    0.55571   1.00
H2       1.07502    0.93149    0.65076   1.00
C4       0.74669    0.51975    0.75346   1.00
C4       0.74695    0.47809    0.75499   1.00
C3       0.71925    0.54103    0.73058   1.00
C3       0.71738    0.45496    0.73711   1.00
C3       0.77476    0.54146    0.77542   1.00
C3       0.77770    0.45830    0.77509   1.00
C2       0.74490    0.60405    0.75185   1.00
C2       0.74847    0.39378    0.75642   1.00
C3       0.71820    0.58189    0.72990   1.00
C3       0.71816    0.41409    0.73759   1.00
C3       0.77256    0.58304    0.77411   1.00
C3       0.77754    0.41664    0.77472   1.00
H1       0.69924    0.52763    0.71325   1.00
H1       0.69396    0.46694    0.72339   1.00
C5       0.80413    0.52165    0.79771   1.00
C5       0.80739    0.48002    0.79504   1.00
H1       0.69759    0.59549    0.71293   1.00
H1       0.69605    0.39909    0.72401   1.00
H1       0.79185    0.59948    0.78954   1.00
H1       0.79905    0.40152    0.78846   1.00
C6       0.83097    0.54485    0.82404   1.00
C6       0.84195    0.45881    0.81261   1.00
H2       0.81387    0.56655    0.83978   1.00
H2       0.85225    0.43690    0.79200   1.00
H2       0.84227    0.52714    0.84780   1.00
H2       0.86730    0.47772    0.81505   1.00
C6       0.86605    0.56394    0.80173   1.00
C6       0.83298    0.44058    0.85359   1.00
H2       0.85558    0.57708    0.77461   1.00
H2       0.80453    0.42617    0.85287   1.00
C6       0.89060    0.59541    0.82395   1.00
C6       0.86326    0.41089    0.87058   1.00
H2       0.88568    0.54051    0.79267   1.00
H2       0.82973    0.46454    0.87437   1.00
C6       0.86630    0.63265    0.83245   1.00
C6       0.86506    0.37292    0.84599   1.00
C6       0.90721    0.57926    0.86277   1.00
C6       0.90463    0.42893    0.87321   1.00
C6       0.92555    0.60755    0.79778   1.00
C6       0.85031    0.39946    0.91247   1.00
H2       0.85363    0.64442    0.80568   1.00
H2       0.83617    0.35980    0.84304   1.00
H2       0.84255    0.62670    0.85270   1.00
H2       0.87630    0.37846    0.81679   1.00
H2       0.88436    0.65541    0.84549   1.00
H2       0.88419    0.35137    0.85954   1.00
H2       0.92652    0.60045    0.87664   1.00
H2       0.92489    0.40902    0.88764   1.00
H2       0.88383    0.57275    0.88333   1.00
H2       0.91626    0.43506    0.84425   1.00
H2       0.92377    0.55255    0.85771   1.00
H2       0.90404    0.45615    0.88970   1.00
H2       0.91539    0.61958    0.77008   1.00
H2       0.82135    0.38617    0.91221   1.00
H2       0.94347    0.62975    0.81197   1.00
H2       0.87046    0.37851    0.92551   1.00
H2       0.94429    0.58261    0.79140   1.00
H2       0.84924    0.42498    0.93149   1.00
C4       0.75346    0.74669    0.51975   1.00
C4       0.75499    0.74695    0.47809   1.00
C3       0.73058    0.71925    0.54103   1.00
C3       0.73711    0.71738    0.45496   1.00
C3       0.77542    0.77476    0.54146   1.00
C3       0.77509    0.77770    0.45830   1.00
C2       0.75185    0.74490    0.60405   1.00
C2       0.75642    0.74847    0.39378   1.00
C3       0.72990    0.71820    0.58189   1.00
C3       0.73759    0.71816    0.41409   1.00
C3       0.77411    0.77256    0.58304   1.00
C3       0.77472    0.77754    0.41664   1.00
H1       0.71325    0.69924    0.52763   1.00
H1       0.72339    0.69396    0.46694   1.00
C5       0.79771    0.80413    0.52165   1.00
C5       0.79504    0.80739    0.48002   1.00
H1       0.71293    0.69759    0.59549   1.00
H1       0.72401    0.69605    0.39909   1.00
H1       0.78954    0.79185    0.59948   1.00
H1       0.78846    0.79905    0.40152   1.00
C6       0.82404    0.83097    0.54485   1.00
C6       0.81261    0.84195    0.45881   1.00
H2       0.83978    0.81387    0.56655   1.00
H2       0.79200    0.85225    0.43690   1.00
H2       0.84780    0.84227    0.52714   1.00
H2       0.81505    0.86730    0.47772   1.00
C6       0.80173    0.86605    0.56394   1.00
C6       0.85359    0.83298    0.44058   1.00
H2       0.77461    0.85558    0.57708   1.00
H2       0.85287    0.80453    0.42617   1.00
C6       0.82395    0.89060    0.59541   1.00
C6       0.87058    0.86326    0.41089   1.00
H2       0.79267    0.88568    0.54051   1.00
H2       0.87437    0.82973    0.46454   1.00
C6       0.83245    0.86630    0.63265   1.00
C6       0.84599    0.86506    0.37292   1.00
C6       0.86277    0.90721    0.57926   1.00
C6       0.87321    0.90463    0.42893   1.00
C6       0.79778    0.92555    0.60755   1.00
C6       0.91247    0.85031    0.39946   1.00
H2       0.80568    0.85363    0.64442   1.00
H2       0.84304    0.83617    0.35980   1.00
H2       0.85270    0.84255    0.62670   1.00
H2       0.81679    0.87630    0.37846   1.00
H2       0.84549    0.88436    0.65541   1.00
H2       0.85954    0.88419    0.35137   1.00
H2       0.87664    0.92652    0.60045   1.00
H2       0.88764    0.92489    0.40902   1.00
H2       0.88333    0.88383    0.57275   1.00
H2       0.84425    0.91626    0.43506   1.00
H2       0.85771    0.92377    0.55255   1.00
H2       0.88970    0.90404    0.45615   1.00
H2       0.77008    0.91539    0.61958   1.00
H2       0.91221    0.82135    0.38617   1.00
H2       0.81197    0.94347    0.62975   1.00
H2       0.92551    0.87046    0.37851   1.00
H2       0.79140    0.94429    0.58261   1.00
H2       0.93149    0.84924    0.42498   1.00
C4       0.25346    0.25331    0.98025   1.00
C4       0.25499    0.25305    1.02191   1.00
C3       0.23058    0.28075    0.95897   1.00
C3       0.23711    0.28262    1.04504   1.00
C3       0.27542    0.22524    0.95854   1.00
C3       0.27509    0.22230    1.04170   1.00
C2       0.25185    0.25510    0.89595   1.00
C2       0.25642    0.25153    1.10622   1.00
C3       0.22990    0.28180    0.91811   1.00
C3       0.23759    0.28184    1.08591   1.00
C3       0.27411    0.22744    0.91696   1.00
C3       0.27472    0.22246    1.08336   1.00
H1       0.21325    0.30076    0.97237   1.00
H1       0.22339    0.30604    1.03306   1.00
C5       0.29771    0.19587    0.97835   1.00
C5       0.29504    0.19261    1.01998   1.00
H1       0.21293    0.30241    0.90451   1.00
H1       0.22401    0.30395    1.10091   1.00
H1       0.28954    0.20815    0.90052   1.00
H1       0.28846    0.20095    1.09848   1.00
C6       0.32404    0.16903    0.95515   1.00
C6       0.31261    0.15805    1.04119   1.00
H2       0.33978    0.18613    0.93345   1.00
H2       0.29200    0.14775    1.06310   1.00
H2       0.34780    0.15773    0.97286   1.00
H2       0.31505    0.13270    1.02228   1.00
C6       0.30173    0.13395    0.93606   1.00
C6       0.35359    0.16702    1.05942   1.00
H2       0.27461    0.14442    0.92292   1.00
H2       0.35287    0.19547    1.07383   1.00
C6       0.32395    0.10940    0.90459   1.00
C6       0.37058    0.13674    1.08911   1.00
H2       0.29267    0.11432    0.95949   1.00
H2       0.37437    0.17027    1.03546   1.00
C6       0.33245    0.13370    0.86735   1.00
C6       0.34599    0.13494    1.12708   1.00
C6       0.36277    0.09279    0.92074   1.00
C6       0.37321    0.09537    1.07107   1.00
C6       0.29778    0.07445    0.89245   1.00
C6       0.41247    0.14969    1.10054   1.00
H2       0.30568    0.14637    0.85558   1.00
H2       0.34304    0.16383    1.14020   1.00
H2       0.35270    0.15745    0.87330   1.00
H2       0.31679    0.12370    1.12154   1.00
H2       0.34549    0.11564    0.84459   1.00
H2       0.35954    0.11581    1.14863   1.00
H2       0.37664    0.07348    0.89955   1.00
H2       0.38764    0.07511    1.09098   1.00
H2       0.38333    0.11617    0.92725   1.00
H2       0.34425    0.08374    1.06494   1.00
H2       0.35771    0.07623    0.94745   1.00
H2       0.38970    0.09596    1.04385   1.00
H2       0.27008    0.08461    0.88042   1.00
H2       0.41221    0.17865    1.11383   1.00
H2       0.31197    0.05653    0.87025   1.00
H2       0.42551    0.12954    1.12149   1.00
H2       0.29140    0.05571    0.91739   1.00
H2       0.43149    0.15076    1.07502   1.00
C4       0.25331    0.48025    0.75346   1.00
C4       0.25305    0.52191    0.75499   1.00
C3       0.28075    0.45897    0.73058   1.00
C3       0.28262    0.54504    0.73711   1.00
C3       0.22524    0.45854    0.77542   1.00
C3       0.22230    0.54170    0.77509   1.00
C2       0.25510    0.39595    0.75185   1.00
C2       0.25153    0.60622    0.75642   1.00
C3       0.28180    0.41811    0.72990   1.00
C3       0.28184    0.58591    0.73759   1.00
C3       0.22744    0.41696    0.77411   1.00
C3       0.22246    0.58336    0.77472   1.00
H1       0.30076    0.47237    0.71325   1.00
H1       0.30604    0.53306    0.72339   1.00
C5       0.19587    0.47835    0.79771   1.00
C5       0.19261    0.51998    0.79504   1.00
H1       0.30241    0.40451    0.71293   1.00
H1       0.30395    0.60091    0.72401   1.00
H1       0.20815    0.40052    0.78954   1.00
H1       0.20095    0.59848    0.78846   1.00
C6       0.16903    0.45515    0.82404   1.00
C6       0.15805    0.54119    0.81261   1.00
H2       0.18613    0.43345    0.83978   1.00
H2       0.14775    0.56310    0.79200   1.00
H2       0.15773    0.47286    0.84780   1.00
H2       0.13270    0.52228    0.81505   1.00
C6       0.13395    0.43606    0.80173   1.00
C6       0.16702    0.55942    0.85359   1.00
H2       0.14442    0.42292    0.77461   1.00
H2       0.19547    0.57383    0.85287   1.00
C6       0.10940    0.40459    0.82395   1.00
C6       0.13674    0.58911    0.87058   1.00
H2       0.11432    0.45949    0.79267   1.00
H2       0.17027    0.53546    0.87437   1.00
C6       0.13370    0.36735    0.83245   1.00
C6       0.13494    0.62708    0.84599   1.00
C6       0.09279    0.42074    0.86277   1.00
C6       0.09537    0.57107    0.87321   1.00
C6       0.07445    0.39245    0.79778   1.00
C6       0.14969    0.60054    0.91247   1.00
H2       0.14637    0.35558    0.80568   1.00
H2       0.16383    0.64020    0.84304   1.00
H2       0.15745    0.37330    0.85270   1.00
H2       0.12370    0.62154    0.81679   1.00
H2       0.11564    0.34459    0.84549   1.00
H2       0.11581    0.64863    0.85954   1.00
H2       0.07348    0.39955    0.87664   1.00
H2       0.07511    0.59098    0.88764   1.00
H2       0.11617    0.42725    0.88333   1.00
H2       0.08374    0.56494    0.84425   1.00
H2       0.07623    0.44745    0.85771   1.00
H2       0.09596    0.54385    0.88970   1.00
H2       0.08461    0.38042    0.77008   1.00
H2       0.17865    0.61383    0.91221   1.00
H2       0.05653    0.37025    0.81197   1.00
H2       0.12954    0.62149    0.92551   1.00
H2       0.05571    0.41739    0.79140   1.00
H2       0.15076    0.57502    0.93149   1.00
C4       0.01975    0.25346    0.74669   1.00
C4       -0.02191   0.25499    0.74695   1.00
C3       0.04103    0.23058    0.71925   1.00
C3       -0.04504   0.23711    0.71738   1.00
C3       0.04146    0.27542    0.77476   1.00
C3       -0.04170   0.27509    0.77770   1.00
C2       0.10405    0.25185    0.74490   1.00
C2       -0.10622   0.25642    0.74847   1.00
C3       0.08189    0.22990    0.71820   1.00
C3       -0.08591   0.23759    0.71816   1.00
C3       0.08304    0.27411    0.77256   1.00
C3       -0.08336   0.27472    0.77754   1.00
H1       0.02763    0.21325    0.69924   1.00
H1       -0.03306   0.22339    0.69396   1.00
C5       0.02165    0.29771    0.80413   1.00
C5       -0.01998   0.29504    0.80739   1.00
H1       0.09549    0.21293    0.69759   1.00
H1       -0.10091   0.22401    0.69605   1.00
H1       0.09948    0.28954    0.79185   1.00
H1       -0.09848   0.28846    0.79905   1.00
C6       0.04485    0.32404    0.83097   1.00
C6       -0.04119   0.31261    0.84195   1.00
H2       0.06655    0.33978    0.81387   1.00
H2       -0.06310   0.29200    0.85225   1.00
H2       0.02714    0.34780    0.84227   1.00
H2       -0.02228   0.31505    0.86730   1.00
C6       0.06394    0.30173    0.86605   1.00
C6       -0.05942   0.35359    0.83298   1.00
H2       0.07708    0.27461    0.85558   1.00
H2       -0.07383   0.35287    0.80453   1.00
C6       0.09541    0.32395    0.89060   1.00
C6       -0.08911   0.37058    0.86326   1.00
H2       0.04051    0.29267    0.88568   1.00
H2       -0.03546   0.37437    0.82973   1.00
C6       0.13265    0.33245    0.86630   1.00
C6       -0.12708   0.34599    0.86506   1.00
C6       0.07926    0.36277    0.90721   1.00
C6       -0.07107   0.37321    0.90463   1.00
C6       0.10755    0.29778    0.92555   1.00
C6       -0.10054   0.41247    0.85031   1.00
H2       0.14442    0.30568    0.85363   1.00
H2       -0.14020   0.34304    0.83617   1.00
H2       0.12670    0.35270    0.84255   1.00
H2       -0.12154   0.31679    0.87630   1.00
H2       0.15541    0.34549    0.88436   1.00
H2       -0.14863   0.35954    0.88419   1.00
H2       0.10045    0.37664    0.92652   1.00
H2       -0.09098   0.38764    0.92489   1.00
H2       0.07275    0.38333    0.88383   1.00
H2       -0.06494   0.34425    0.91626   1.00
H2       0.05255    0.35771    0.92377   1.00
H2       -0.04385   0.38970    0.90404   1.00
H2       0.11958    0.27008    0.91539   1.00
H2       -0.11383   0.41221    0.82135   1.00
H2       0.12975    0.31197    0.94347   1.00
H2       -0.12149   0.42551    0.87046   1.00
H2       0.08261    0.29140    0.94429   1.00
H2       -0.07502   0.43149    0.84924   1.00
C4       0.48025    0.25346    0.75331   1.00
C4       0.52191    0.25499    0.75305   1.00
C3       0.45897    0.23058    0.78075   1.00
C3       0.54504    0.23711    0.78262   1.00
C3       0.45854    0.27542    0.72524   1.00
C3       0.54170    0.27509    0.72230   1.00
C2       0.39595    0.25185    0.75510   1.00
C2       0.60622    0.25642    0.75153   1.00
C3       0.41811    0.22990    0.78180   1.00
C3       0.58591    0.23759    0.78184   1.00
C3       0.41696    0.27411    0.72744   1.00
C3       0.58336    0.27472    0.72246   1.00
H1       0.47237    0.21325    0.80076   1.00
H1       0.53306    0.22339    0.80604   1.00
C5       0.47835    0.29771    0.69587   1.00
C5       0.51998    0.29504    0.69261   1.00
H1       0.40451    0.21293    0.80241   1.00
H1       0.60091    0.22401    0.80395   1.00
H1       0.40052    0.28954    0.70815   1.00
H1       0.59848    0.28846    0.70095   1.00
C6       0.45515    0.32404    0.66903   1.00
C6       0.54119    0.31261    0.65805   1.00
H2       0.43345    0.33978    0.68613   1.00
H2       0.56310    0.29200    0.64775   1.00
H2       0.47286    0.34780    0.65773   1.00
H2       0.52228    0.31505    0.63270   1.00
C6       0.43606    0.30173    0.63395   1.00
C6       0.55942    0.35359    0.66702   1.00
H2       0.42292    0.27461    0.64442   1.00
H2       0.57383    0.35287    0.69547   1.00
C6       0.40459    0.32395    0.60940   1.00
C6       0.58911    0.37058    0.63674   1.00
H2       0.45949    0.29267    0.61432   1.00
H2       0.53546    0.37437    0.67027   1.00
C6       0.36735    0.33245    0.63370   1.00
C6       0.62708    0.34599    0.63494   1.00
C6       0.42074    0.36277    0.59279   1.00
C6       0.57107    0.37321    0.59537   1.00
C6       0.39245    0.29778    0.57445   1.00
C6       0.60054    0.41247    0.64969   1.00
H2       0.35558    0.30568    0.64637   1.00
H2       0.64020    0.34304    0.66383   1.00
H2       0.37330    0.35270    0.65745   1.00
H2       0.62154    0.31679    0.62370   1.00
H2       0.34459    0.34549    0.61564   1.00
H2       0.64863    0.35954    0.61581   1.00
H2       0.39955    0.37664    0.57348   1.00
H2       0.59098    0.38764    0.57511   1.00
H2       0.42725    0.38333    0.61617   1.00
H2       0.56494    0.34425    0.58374   1.00
H2       0.44745    0.35771    0.57623   1.00
H2       0.54385    0.38970    0.59596   1.00
H2       0.38042    0.27008    0.58461   1.00
H2       0.61383    0.41221    0.67865   1.00
H2       0.37025    0.31197    0.55653   1.00
H2       0.62149    0.42551    0.62954   1.00
H2       0.41739    0.29140    0.55571   1.00
H2       0.57502    0.43149    0.65076   1.00
C4       0.24669    0.01975    0.75346   1.00
C4       0.24695    -0.02191   0.75499   1.00
C3       0.21925    0.04103    0.73058   1.00
C3       0.21738    -0.04504   0.73711   1.00
C3       0.27476    0.04146    0.77542   1.00
C3       0.27770    -0.04170   0.77509   1.00
C2       0.24490    0.10405    0.75185   1.00
C2       0.24847    -0.10622   0.75642   1.00
C3       0.21820    0.08189    0.72990   1.00
C3       0.21816    -0.08591   0.73759   1.00
C3       0.27256    0.08304    0.77411   1.00
C3       0.27754    -0.08336   0.77472   1.00
H1       0.19924    0.02763    0.71325   1.00
H1       0.19396    -0.03306   0.72339   1.00
C5       0.30413    0.02165    0.79771   1.00
C5       0.30739    -0.01998   0.79504   1.00
H1       0.19759    0.09549    0.71293   1.00
H1       0.19605    -0.10091   0.72401   1.00
H1       0.29185    0.09948    0.78954   1.00
H1       0.29905    -0.09848   0.78846   1.00
C6       0.33097    0.04485    0.82404   1.00
C6       0.34195    -0.04119   0.81261   1.00
H2       0.31387    0.06655    0.83978   1.00
H2       0.35225    -0.06310   0.79200   1.00
H2       0.34227    0.02714    0.84780   1.00
H2       0.36730    -0.02228   0.81505   1.00
C6       0.36605    0.06394    0.80173   1.00
C6       0.33298    -0.05942   0.85359   1.00
H2       0.35558    0.07708    0.77461   1.00
H2       0.30453    -0.07383   0.85287   1.00
C6       0.39060    0.09541    0.82395   1.00
C6       0.36326    -0.08911   0.87058   1.00
H2       0.38568    0.04051    0.79267   1.00
H2       0.32973    -0.03546   0.87437   1.00
C6       0.36630    0.13265    0.83245   1.00
C6       0.36506    -0.12708   0.84599   1.00
C6       0.40721    0.07926    0.86277   1.00
C6       0.40463    -0.07107   0.87321   1.00
C6       0.42555    0.10755    0.79778   1.00
C6       0.35031    -0.10054   0.91247   1.00
H2       0.35363    0.14442    0.80568   1.00
H2       0.33617    -0.14020   0.84304   1.00
H2       0.34255    0.12670    0.85270   1.00
H2       0.37630    -0.12154   0.81679   1.00
H2       0.38436    0.15541    0.84549   1.00
H2       0.38419    -0.14863   0.85954   1.00
H2       0.42652    0.10045    0.87664   1.00
H2       0.42489    -0.09098   0.88764   1.00
H2       0.38383    0.07275    0.88333   1.00
H2       0.41626    -0.06494   0.84425   1.00
H2       0.42377    0.05255    0.85771   1.00
H2       0.40404    -0.04385   0.88970   1.00
H2       0.41539    0.11958    0.77008   1.00
H2       0.32135    -0.11383   0.91221   1.00
H2       0.44347    0.12975    0.81197   1.00
H2       0.37046    -0.12149   0.92551   1.00
H2       0.44429    0.08261    0.79140   1.00
H2       0.34924    -0.07502   0.93149   1.00
C4       0.25346    0.24669    0.51975   1.00
C4       0.25499    0.24695    0.47809   1.00
C3       0.23058    0.21925    0.54103   1.00
C3       0.23711    0.21738    0.45496   1.00
C3       0.27542    0.27476    0.54146   1.00
C3       0.27509    0.27770    0.45830   1.00
C2       0.25185    0.24490    0.60405   1.00
C2       0.25642    0.24847    0.39378   1.00
C3       0.22990    0.21820    0.58189   1.00
C3       0.23759    0.21816    0.41409   1.00
C3       0.27411    0.27256    0.58304   1.00
C3       0.27472    0.27754    0.41664   1.00
H1       0.21325    0.19924    0.52763   1.00
H1       0.22339    0.19396    0.46694   1.00
C5       0.29771    0.30413    0.52165   1.00
C5       0.29504    0.30739    0.48002   1.00
H1       0.21293    0.19759    0.59549   1.00
H1       0.22401    0.19605    0.39909   1.00
H1       0.28954    0.29185    0.59948   1.00
H1       0.28846    0.29905    0.40152   1.00
C6       0.32404    0.33097    0.54485   1.00
C6       0.31261    0.34195    0.45881   1.00
H2       0.33978    0.31387    0.56655   1.00
H2       0.29200    0.35225    0.43690   1.00
H2       0.34780    0.34227    0.52714   1.00
H2       0.31505    0.36730    0.47772   1.00
C6       0.30173    0.36605    0.56394   1.00
C6       0.35359    0.33298    0.44058   1.00
H2       0.27461    0.35558    0.57708   1.00
H2       0.35287    0.30453    0.42617   1.00
C6       0.32395    0.39060    0.59541   1.00
C6       0.37058    0.36326    0.41089   1.00
H2       0.29267    0.38568    0.54051   1.00
H2       0.37437    0.32973    0.46454   1.00
C6       0.33245    0.36630    0.63265   1.00
C6       0.34599    0.36506    0.37292   1.00
C6       0.36277    0.40721    0.57926   1.00
C6       0.37321    0.40463    0.42893   1.00
C6       0.29778    0.42555    0.60755   1.00
C6       0.41247    0.35031    0.39946   1.00
H2       0.30568    0.35363    0.64442   1.00
H2       0.34304    0.33617    0.35980   1.00
H2       0.35270    0.34255    0.62670   1.00
H2       0.31679    0.37630    0.37846   1.00
H2       0.34549    0.38436    0.65541   1.00
H2       0.35954    0.38419    0.35137   1.00
H2       0.37664    0.42652    0.60045   1.00
H2       0.38764    0.42489    0.40902   1.00
H2       0.38333    0.38383    0.57275   1.00
H2       0.34425    0.41626    0.43506   1.00
H2       0.35771    0.42377    0.55255   1.00
H2       0.38970    0.40404    0.45615   1.00
H2       0.27008    0.41539    0.61958   1.00
H2       0.41221    0.32135    0.38617   1.00
H2       0.31197    0.44347    0.62975   1.00
H2       0.42551    0.37046    0.37851   1.00
H2       0.29140    0.44429    0.58261   1.00
H2       0.43149    0.34924    0.42498   1.00
C4       0.25346    0.75331    0.48025   1.00
C4       0.25499    0.75305    0.52191   1.00
C3       0.23058    0.78075    0.45897   1.00
C3       0.23711    0.78262    0.54504   1.00
C3       0.27542    0.72524    0.45854   1.00
C3       0.27509    0.72230    0.54170   1.00
C2       0.25185    0.75510    0.39595   1.00
C2       0.25642    0.75153    0.60622   1.00
C3       0.22990    0.78180    0.41811   1.00
C3       0.23759    0.78184    0.58591   1.00
C3       0.27411    0.72744    0.41696   1.00
C3       0.27472    0.72246    0.58336   1.00
H1       0.21325    0.80076    0.47237   1.00
H1       0.22339    0.80604    0.53306   1.00
C5       0.29771    0.69587    0.47835   1.00
C5       0.29504    0.69261    0.51998   1.00
H1       0.21293    0.80241    0.40451   1.00
H1       0.22401    0.80395    0.60091   1.00
H1       0.28954    0.70815    0.40052   1.00
H1       0.28846    0.70095    0.59848   1.00
C6       0.32404    0.66903    0.45515   1.00
C6       0.31261    0.65805    0.54119   1.00
H2       0.33978    0.68613    0.43345   1.00
H2       0.29200    0.64775    0.56310   1.00
H2       0.34780    0.65773    0.47286   1.00
H2       0.31505    0.63270    0.52228   1.00
C6       0.30173    0.63395    0.43606   1.00
C6       0.35359    0.66702    0.55942   1.00
H2       0.27461    0.64442    0.42292   1.00
H2       0.35287    0.69547    0.57383   1.00
C6       0.32395    0.60940    0.40459   1.00
C6       0.37058    0.63674    0.58911   1.00
H2       0.29267    0.61432    0.45949   1.00
H2       0.37437    0.67027    0.53546   1.00
C6       0.33245    0.63370    0.36735   1.00
C6       0.34599    0.63494    0.62708   1.00
C6       0.36277    0.59279    0.42074   1.00
C6       0.37321    0.59537    0.57107   1.00
C6       0.29778    0.57445    0.39245   1.00
C6       0.41247    0.64969    0.60054   1.00
H2       0.30568    0.64637    0.35558   1.00
H2       0.34304    0.66383    0.64020   1.00
H2       0.35270    0.65745    0.37330   1.00
H2       0.31679    0.62370    0.62154   1.00
H2       0.34549    0.61564    0.34459   1.00
H2       0.35954    0.61581    0.64863   1.00
H2       0.37664    0.57348    0.39955   1.00
H2       0.38764    0.57511    0.59098   1.00
H2       0.38333    0.61617    0.42725   1.00
H2       0.34425    0.58374    0.56494   1.00
H2       0.35771    0.57623    0.44745   1.00
H2       0.38970    0.59596    0.54385   1.00
H2       0.27008    0.58461    0.38042   1.00
H2       0.41221    0.67865    0.61383   1.00
H2       0.31197    0.55653    0.37025   1.00
H2       0.42551    0.62954    0.62149   1.00
H2       0.29140    0.55571    0.41739   1.00
H2       0.43149    0.65076    0.57502   1.00
C4       0.25331    0.98025    0.25346   1.00
C4       0.25305    1.02191    0.25499   1.00
C3       0.28075    0.95897    0.23058   1.00
C3       0.28262    1.04504    0.23711   1.00
C3       0.22524    0.95854    0.27542   1.00
C3       0.22230    1.04170    0.27509   1.00
C2       0.25510    0.89595    0.25185   1.00
C2       0.25153    1.10622    0.25642   1.00
C3       0.28180    0.91811    0.22990   1.00
C3       0.28184    1.08591    0.23759   1.00
C3       0.22744    0.91696    0.27411   1.00
C3       0.22246    1.08336    0.27472   1.00
H1       0.30076    0.97237    0.21325   1.00
H1       0.30604    1.03306    0.22339   1.00
C5       0.19587    0.97835    0.29771   1.00
C5       0.19261    1.01998    0.29504   1.00
H1       0.30241    0.90451    0.21293   1.00
H1       0.30395    1.10091    0.22401   1.00
H1       0.20815    0.90052    0.28954   1.00
H1       0.20095    1.09848    0.28846   1.00
C6       0.16903    0.95515    0.32404   1.00
C6       0.15805    1.04119    0.31261   1.00
H2       0.18613    0.93345    0.33978   1.00
H2       0.14775    1.06310    0.29200   1.00
H2       0.15773    0.97286    0.34780   1.00
H2       0.13270    1.02228    0.31505   1.00
C6       0.13395    0.93606    0.30173   1.00
C6       0.16702    1.05942    0.35359   1.00
H2       0.14442    0.92292    0.27461   1.00
H2       0.19547    1.07383    0.35287   1.00
C6       0.10940    0.90459    0.32395   1.00
C6       0.13674    1.08911    0.37058   1.00
H2       0.11432    0.95949    0.29267   1.00
H2       0.17027    1.03546    0.37437   1.00
C6       0.13370    0.86735    0.33245   1.00
C6       0.13494    1.12708    0.34599   1.00
C6       0.09279    0.92074    0.36277   1.00
C6       0.09537    1.07107    0.37321   1.00
C6       0.07445    0.89245    0.29778   1.00
C6       0.14969    1.10054    0.41247   1.00
H2       0.14637    0.85558    0.30568   1.00
H2       0.16383    1.14020    0.34304   1.00
H2       0.15745    0.87330    0.35270   1.00
H2       0.12370    1.12154    0.31679   1.00
H2       0.11564    0.84459    0.34549   1.00
H2       0.11581    1.14863    0.35954   1.00
H2       0.07348    0.89955    0.37664   1.00
H2       0.07511    1.09098    0.38764   1.00
H2       0.11617    0.92725    0.38333   1.00
H2       0.08374    1.06494    0.34425   1.00
H2       0.07623    0.94745    0.35771   1.00
H2       0.09596    1.04385    0.38970   1.00
H2       0.08461    0.88042    0.27008   1.00
H2       0.17865    1.11383    0.41221   1.00
H2       0.05653    0.87025    0.31197   1.00
H2       0.12954    1.12149    0.42551   1.00
H2       0.05571    0.91739    0.29140   1.00
H2       0.15076    1.07502    0.43149   1.00
C4       0.01975    0.75346    0.24669   1.00
C4       -0.02191   0.75499    0.24695   1.00
C3       0.04103    0.73058    0.21925   1.00
C3       -0.04504   0.73711    0.21738   1.00
C3       0.04146    0.77542    0.27476   1.00
C3       -0.04170   0.77509    0.27770   1.00
C2       0.10405    0.75185    0.24490   1.00
C2       -0.10622   0.75642    0.24847   1.00
C3       0.08189    0.72990    0.21820   1.00
C3       -0.08591   0.73759    0.21816   1.00
C3       0.08304    0.77411    0.27256   1.00
C3       -0.08336   0.77472    0.27754   1.00
H1       0.02763    0.71325    0.19924   1.00
H1       -0.03306   0.72339    0.19396   1.00
C5       0.02165    0.79771    0.30413   1.00
C5       -0.01998   0.79504    0.30739   1.00
H1       0.09549    0.71293    0.19759   1.00
H1       -0.10091   0.72401    0.19605   1.00
H1       0.09948    0.78954    0.29185   1.00
H1       -0.09848   0.78846    0.29905   1.00
C6       0.04485    0.82404    0.33097   1.00
C6       -0.04119   0.81261    0.34195   1.00
H2       0.06655    0.83978    0.31387   1.00
H2       -0.06310   0.79200    0.35225   1.00
H2       0.02714    0.84780    0.34227   1.00
H2       -0.02228   0.81505    0.36730   1.00
C6       0.06394    0.80173    0.36605   1.00
C6       -0.05942   0.85359    0.33298   1.00
H2       0.07708    0.77461    0.35558   1.00
H2       -0.07383   0.85287    0.30453   1.00
C6       0.09541    0.82395    0.39060   1.00
C6       -0.08911   0.87058    0.36326   1.00
H2       0.04051    0.79267    0.38568   1.00
H2       -0.03546   0.87437    0.32973   1.00
C6       0.13265    0.83245    0.36630   1.00
C6       -0.12708   0.84599    0.36506   1.00
C6       0.07926    0.86277    0.40721   1.00
C6       -0.07107   0.87321    0.40463   1.00
C6       0.10755    0.79778    0.42555   1.00
C6       -0.10054   0.91247    0.35031   1.00
H2       0.14442    0.80568    0.35363   1.00
H2       -0.14020   0.84304    0.33617   1.00
H2       0.12670    0.85270    0.34255   1.00
H2       -0.12154   0.81679    0.37630   1.00
H2       0.15541    0.84549    0.38436   1.00
H2       -0.14863   0.85954    0.38419   1.00
H2       0.10045    0.87664    0.42652   1.00
H2       -0.09098   0.88764    0.42489   1.00
H2       0.07275    0.88333    0.38383   1.00
H2       -0.06494   0.84425    0.41626   1.00
H2       0.05255    0.85771    0.42377   1.00
H2       -0.04385   0.88970    0.40404   1.00
H2       0.11958    0.77008    0.41539   1.00
H2       -0.11383   0.91221    0.32135   1.00
H2       0.12975    0.81197    0.44347   1.00
H2       -0.12149   0.92551    0.37046   1.00
H2       0.08261    0.79140    0.44429   1.00
H2       -0.07502   0.93149    0.34924   1.00
C4       0.48025    0.75346    0.25331   1.00
C4       0.52191    0.75499    0.25305   1.00
C3       0.45897    0.73058    0.28075   1.00
C3       0.54504    0.73711    0.28262   1.00
C3       0.45854    0.77542    0.22524   1.00
C3       0.54170    0.77509    0.22230   1.00
C2       0.39595    0.75185    0.25510   1.00
C2       0.60622    0.75642    0.25153   1.00
C3       0.41811    0.72990    0.28180   1.00
C3       0.58591    0.73759    0.28184   1.00
C3       0.41696    0.77411    0.22744   1.00
C3       0.58336    0.77472    0.22246   1.00
H1       0.47237    0.71325    0.30076   1.00
H1       0.53306    0.72339    0.30604   1.00
C5       0.47835    0.79771    0.19587   1.00
C5       0.51998    0.79504    0.19261   1.00
H1       0.40451    0.71293    0.30241   1.00
H1       0.60091    0.72401    0.30395   1.00
H1       0.40052    0.78954    0.20815   1.00
H1       0.59848    0.78846    0.20095   1.00
C6       0.45515    0.82404    0.16903   1.00
C6       0.54119    0.81261    0.15805   1.00
H2       0.43345    0.83978    0.18613   1.00
H2       0.56310    0.79200    0.14775   1.00
H2       0.47286    0.84780    0.15773   1.00
H2       0.52228    0.81505    0.13270   1.00
C6       0.43606    0.80173    0.13395   1.00
C6       0.55942    0.85359    0.16702   1.00
H2       0.42292    0.77461    0.14442   1.00
H2       0.57383    0.85287    0.19547   1.00
C6       0.40459    0.82395    0.10940   1.00
C6       0.58911    0.87058    0.13674   1.00
H2       0.45949    0.79267    0.11432   1.00
H2       0.53546    0.87437    0.17027   1.00
C6       0.36735    0.83245    0.13370   1.00
C6       0.62708    0.84599    0.13494   1.00
C6       0.42074    0.86277    0.09279   1.00
C6       0.57107    0.87321    0.09537   1.00
C6       0.39245    0.79778    0.07445   1.00
C6       0.60054    0.91247    0.14969   1.00
H2       0.35558    0.80568    0.14637   1.00
H2       0.64020    0.84304    0.16383   1.00
H2       0.37330    0.85270    0.15745   1.00
H2       0.62154    0.81679    0.12370   1.00
H2       0.34459    0.84549    0.11564   1.00
H2       0.64863    0.85954    0.11581   1.00
H2       0.39955    0.87664    0.07348   1.00
H2       0.59098    0.88764    0.07511   1.00
H2       0.42725    0.88333    0.11617   1.00
H2       0.56494    0.84425    0.08374   1.00
H2       0.44745    0.85771    0.07623   1.00
H2       0.54385    0.88970    0.09596   1.00
H2       0.38042    0.77008    0.08461   1.00
H2       0.61383    0.91221    0.17865   1.00
H2       0.37025    0.81197    0.05653   1.00
H2       0.62149    0.92551    0.12954   1.00
H2       0.41739    0.79140    0.05571   1.00
H2       0.57502    0.93149    0.15076   1.00
C4       0.24669    0.51975    0.25346   1.00
C4       0.24695    0.47809    0.25499   1.00
C3       0.21925    0.54103    0.23058   1.00
C3       0.21738    0.45496    0.23711   1.00
C3       0.27476    0.54146    0.27542   1.00
C3       0.27770    0.45830    0.27509   1.00
C2       0.24490    0.60405    0.25185   1.00
C2       0.24847    0.39378    0.25642   1.00
C3       0.21820    0.58189    0.22990   1.00
C3       0.21816    0.41409    0.23759   1.00
C3       0.27256    0.58304    0.27411   1.00
C3       0.27754    0.41664    0.27472   1.00
H1       0.19924    0.52763    0.21325   1.00
H1       0.19396    0.46694    0.22339   1.00
C5       0.30413    0.52165    0.29771   1.00
C5       0.30739    0.48002    0.29504   1.00
H1       0.19759    0.59549    0.21293   1.00
H1       0.19605    0.39909    0.22401   1.00
H1       0.29185    0.59948    0.28954   1.00
H1       0.29905    0.40152    0.28846   1.00
C6       0.33097    0.54485    0.32404   1.00
C6       0.34195    0.45881    0.31261   1.00
H2       0.31387    0.56655    0.33978   1.00
H2       0.35225    0.43690    0.29200   1.00
H2       0.34227    0.52714    0.34780   1.00
H2       0.36730    0.47772    0.31505   1.00
C6       0.36605    0.56394    0.30173   1.00
C6       0.33298    0.44058    0.35359   1.00
H2       0.35558    0.57708    0.27461   1.00
H2       0.30453    0.42617    0.35287   1.00
C6       0.39060    0.59541    0.32395   1.00
C6       0.36326    0.41089    0.37058   1.00
H2       0.38568    0.54051    0.29267   1.00
H2       0.32973    0.46454    0.37437   1.00
C6       0.36630    0.63265    0.33245   1.00
C6       0.36506    0.37292    0.34599   1.00
C6       0.40721    0.57926    0.36277   1.00
C6       0.40463    0.42893    0.37321   1.00
C6       0.42555    0.60755    0.29778   1.00
C6       0.35031    0.39946    0.41247   1.00
H2       0.35363    0.64442    0.30568   1.00
H2       0.33617    0.35980    0.34304   1.00
H2       0.34255    0.62670    0.35270   1.00
H2       0.37630    0.37846    0.31679   1.00
H2       0.38436    0.65541    0.34549   1.00
H2       0.38419    0.35137    0.35954   1.00
H2       0.42652    0.60045    0.37664   1.00
H2       0.42489    0.40902    0.38764   1.00
H2       0.38383    0.57275    0.38333   1.00
H2       0.41626    0.43506    0.34425   1.00
H2       0.42377    0.55255    0.35771   1.00
H2       0.40404    0.45615    0.38970   1.00
H2       0.41539    0.61958    0.27008   1.00
H2       0.32135    0.38617    0.41221   1.00
H2       0.44347    0.62975    0.31197   1.00
H2       0.37046    0.37851    0.42551   1.00
H2       0.44429    0.58261    0.29140   1.00
H2       0.34924    0.42498    0.43149   1.00
C4       0.25346    0.74669    0.01975   1.00
C4       0.25499    0.74695    -0.02191   1.00
C3       0.23058    0.71925    0.04103   1.00
C3       0.23711    0.71738    -0.04504   1.00
C3       0.27542    0.77476    0.04146   1.00
C3       0.27509    0.77770    -0.04170   1.00
C2       0.25185    0.74490    0.10405   1.00
C2       0.25642    0.74847    -0.10622   1.00
C3       0.22990    0.71820    0.08189   1.00
C3       0.23759    0.71816    -0.08591   1.00
C3       0.27411    0.77256    0.08304   1.00
C3       0.27472    0.77754    -0.08336   1.00
H1       0.21325    0.69924    0.02763   1.00
H1       0.22339    0.69396    -0.03306   1.00
C5       0.29771    0.80413    0.02165   1.00
C5       0.29504    0.80739    -0.01998   1.00
H1       0.21293    0.69759    0.09549   1.00
H1       0.22401    0.69605    -0.10091   1.00
H1       0.28954    0.79185    0.09948   1.00
H1       0.28846    0.79905    -0.09848   1.00
C6       0.32404    0.83097    0.04485   1.00
C6       0.31261    0.84195    -0.04119   1.00
H2       0.33978    0.81387    0.06655   1.00
H2       0.29200    0.85225    -0.06310   1.00
H2       0.34780    0.84227    0.02714   1.00
H2       0.31505    0.86730    -0.02228   1.00
C6       0.30173    0.86605    0.06394   1.00
C6       0.35359    0.83298    -0.05942   1.00
H2       0.27461    0.85558    0.07708   1.00
H2       0.35287    0.80453    -0.07383   1.00
C6       0.32395    0.89060    0.09541   1.00
C6       0.37058    0.86326    -0.08911   1.00
H2       0.29267    0.88568    0.04051   1.00
H2       0.37437    0.82973    -0.03546   1.00
C6       0.33245    0.86630    0.13265   1.00
C6       0.34599    0.86506    -0.12708   1.00
C6       0.36277    0.90721    0.07926   1.00
C6       0.37321    0.90463    -0.07107   1.00
C6       0.29778    0.92555    0.10755   1.00
C6       0.41247    0.85031    -0.10054   1.00
H2       0.30568    0.85363    0.14442   1.00
H2       0.34304    0.83617    -0.14020   1.00
H2       0.35270    0.84255    0.12670   1.00
H2       0.31679    0.87630    -0.12154   1.00
H2       0.34549    0.88436    0.15541   1.00
H2       0.35954    0.88419    -0.14863   1.00
H2       0.37664    0.92652    0.10045   1.00
H2       0.38764    0.92489    -0.09098   1.00
H2       0.38333    0.88383    0.07275   1.00
H2       0.34425    0.91626    -0.06494   1.00
H2       0.35771    0.92377    0.05255   1.00
H2       0.38970    0.90404    -0.04385   1.00
H2       0.27008    0.91539    0.11958   1.00
H2       0.41221    0.82135    -0.11383   1.00
H2       0.31197    0.94347    0.12975   1.00
H2       0.42551    0.87046    -0.12149   1.00
H2       0.29140    0.94429    0.08261   1.00
H2       0.43149    0.84924    -0.07502   1.00
C4       0.75346    0.25331    0.48025   1.00
C4       0.75499    0.25305    0.52191   1.00
C3       0.73058    0.28075    0.45897   1.00
C3       0.73711    0.28262    0.54504   1.00
C3       0.77542    0.22524    0.45854   1.00
C3       0.77509    0.22230    0.54170   1.00
C2       0.75185    0.25510    0.39595   1.00
C2       0.75642    0.25153    0.60622   1.00
C3       0.72990    0.28180    0.41811   1.00
C3       0.73759    0.28184    0.58591   1.00
C3       0.77411    0.22744    0.41696   1.00
C3       0.77472    0.22246    0.58336   1.00
H1       0.71325    0.30076    0.47237   1.00
H1       0.72339    0.30604    0.53306   1.00
C5       0.79771    0.19587    0.47835   1.00
C5       0.79504    0.19261    0.51998   1.00
H1       0.71293    0.30241    0.40451   1.00
H1       0.72401    0.30395    0.60091   1.00
H1       0.78954    0.20815    0.40052   1.00
H1       0.78846    0.20095    0.59848   1.00
C6       0.82404    0.16903    0.45515   1.00
C6       0.81261    0.15805    0.54119   1.00
H2       0.83978    0.18613    0.43345   1.00
H2       0.79200    0.14775    0.56310   1.00
H2       0.84780    0.15773    0.47286   1.00
H2       0.81505    0.13270    0.52228   1.00
C6       0.80173    0.13395    0.43606   1.00
C6       0.85359    0.16702    0.55942   1.00
H2       0.77461    0.14442    0.42292   1.00
H2       0.85287    0.19547    0.57383   1.00
C6       0.82395    0.10940    0.40459   1.00
C6       0.87058    0.13674    0.58911   1.00
H2       0.79267    0.11432    0.45949   1.00
H2       0.87437    0.17027    0.53546   1.00
C6       0.83245    0.13370    0.36735   1.00
C6       0.84599    0.13494    0.62708   1.00
C6       0.86277    0.09279    0.42074   1.00
C6       0.87321    0.09537    0.57107   1.00
C6       0.79778    0.07445    0.39245   1.00
C6       0.91247    0.14969    0.60054   1.00
H2       0.80568    0.14637    0.35558   1.00
H2       0.84304    0.16383    0.64020   1.00
H2       0.85270    0.15745    0.37330   1.00
H2       0.81679    0.12370    0.62154   1.00
H2       0.84549    0.11564    0.34459   1.00
H2       0.85954    0.11581    0.64863   1.00
H2       0.87664    0.07348    0.39955   1.00
H2       0.88764    0.07511    0.59098   1.00
H2       0.88333    0.11617    0.42725   1.00
H2       0.84425    0.08374    0.56494   1.00
H2       0.85771    0.07623    0.44745   1.00
H2       0.88970    0.09596    0.54385   1.00
H2       0.77008    0.08461    0.38042   1.00
H2       0.91221    0.17865    0.61383   1.00
H2       0.81197    0.05653    0.37025   1.00
H2       0.92551    0.12954    0.62149   1.00
H2       0.79140    0.05571    0.41739   1.00
H2       0.93149    0.15076    0.57502   1.00
C4       0.75331    0.48025    0.25346   1.00
C4       0.75305    0.52191    0.25499   1.00
C3       0.78075    0.45897    0.23058   1.00
C3       0.78262    0.54504    0.23711   1.00
C3       0.72524    0.45854    0.27542   1.00
C3       0.72230    0.54170    0.27509   1.00
C2       0.75510    0.39595    0.25185   1.00
C2       0.75153    0.60622    0.25642   1.00
C3       0.78180    0.41811    0.22990   1.00
C3       0.78184    0.58591    0.23759   1.00
C3       0.72744    0.41696    0.27411   1.00
C3       0.72246    0.58336    0.27472   1.00
H1       0.80076    0.47237    0.21325   1.00
H1       0.80604    0.53306    0.22339   1.00
C5       0.69587    0.47835    0.29771   1.00
C5       0.69261    0.51998    0.29504   1.00
H1       0.80241    0.40451    0.21293   1.00
H1       0.80395    0.60091    0.22401   1.00
H1       0.70815    0.40052    0.28954   1.00
H1       0.70095    0.59848    0.28846   1.00
C6       0.66903    0.45515    0.32404   1.00
C6       0.65805    0.54119    0.31261   1.00
H2       0.68613    0.43345    0.33978   1.00
H2       0.64775    0.56310    0.29200   1.00
H2       0.65773    0.47286    0.34780   1.00
H2       0.63270    0.52228    0.31505   1.00
C6       0.63395    0.43606    0.30173   1.00
C6       0.66702    0.55942    0.35359   1.00
H2       0.64442    0.42292    0.27461   1.00
H2       0.69547    0.57383    0.35287   1.00
C6       0.60940    0.40459    0.32395   1.00
C6       0.63674    0.58911    0.37058   1.00
H2       0.61432    0.45949    0.29267   1.00
H2       0.67027    0.53546    0.37437   1.00
C6       0.63370    0.36735    0.33245   1.00
C6       0.63494    0.62708    0.34599   1.00
C6       0.59279    0.42074    0.36277   1.00
C6       0.59537    0.57107    0.37321   1.00
C6       0.57445    0.39245    0.29778   1.00
C6       0.64969    0.60054    0.41247   1.00
H2       0.64637    0.35558    0.30568   1.00
H2       0.66383    0.64020    0.34304   1.00
H2       0.65745    0.37330    0.35270   1.00
H2       0.62370    0.62154    0.31679   1.00
H2       0.61564    0.34459    0.34549   1.00
H2       0.61581    0.64863    0.35954   1.00
H2       0.57348    0.39955    0.37664   1.00
H2       0.57511    0.59098    0.38764   1.00
H2       0.61617    0.42725    0.38333   1.00
H2       0.58374    0.56494    0.34425   1.00
H2       0.57623    0.44745    0.35771   1.00
H2       0.59596    0.54385    0.38970   1.00
H2       0.58461    0.38042    0.27008   1.00
H2       0.67865    0.61383    0.41221   1.00
H2       0.55653    0.37025    0.31197   1.00
H2       0.62954    0.62149    0.42551   1.00
H2       0.55571    0.41739    0.29140   1.00
H2       0.65076    0.57502    0.43149   1.00
C4       0.51975    0.25346    0.24669   1.00
C4       0.47809    0.25499    0.24695   1.00
C3       0.54103    0.23058    0.21925   1.00
C3       0.45496    0.23711    0.21738   1.00
C3       0.54146    0.27542    0.27476   1.00
C3       0.45830    0.27509    0.27770   1.00
C2       0.60405    0.25185    0.24490   1.00
C2       0.39378    0.25642    0.24847   1.00
C3       0.58189    0.22990    0.21820   1.00
C3       0.41409    0.23759    0.21816   1.00
C3       0.58304    0.27411    0.27256   1.00
C3       0.41664    0.27472    0.27754   1.00
H1       0.52763    0.21325    0.19924   1.00
H1       0.46694    0.22339    0.19396   1.00
C5       0.52165    0.29771    0.30413   1.00
C5       0.48002    0.29504    0.30739   1.00
H1       0.59549    0.21293    0.19759   1.00
H1       0.39909    0.22401    0.19605   1.00
H1       0.59948    0.28954    0.29185   1.00
H1       0.40152    0.28846    0.29905   1.00
C6       0.54485    0.32404    0.33097   1.00
C6       0.45881    0.31261    0.34195   1.00
H2       0.56655    0.33978    0.31387   1.00
H2       0.43690    0.29200    0.35225   1.00
H2       0.52714    0.34780    0.34227   1.00
H2       0.47772    0.31505    0.36730   1.00
C6       0.56394    0.30173    0.36605   1.00
C6       0.44058    0.35359    0.33298   1.00
H2       0.57708    0.27461    0.35558   1.00
H2       0.42617    0.35287    0.30453   1.00
C6       0.59541    0.32395    0.39060   1.00
C6       0.41089    0.37058    0.36326   1.00
H2       0.54051    0.29267    0.38568   1.00
H2       0.46454    0.37437    0.32973   1.00
C6       0.63265    0.33245    0.36630   1.00
C6       0.37292    0.34599    0.36506   1.00
C6       0.57926    0.36277    0.40721   1.00
C6       0.42893    0.37321    0.40463   1.00
C6       0.60755    0.29778    0.42555   1.00
C6       0.39946    0.41247    0.35031   1.00
H2       0.64442    0.30568    0.35363   1.00
H2       0.35980    0.34304    0.33617   1.00
H2       0.62670    0.35270    0.34255   1.00
H2       0.37846    0.31679    0.37630   1.00
H2       0.65541    0.34549    0.38436   1.00
H2       0.35137    0.35954    0.38419   1.00
H2       0.60045    0.37664    0.42652   1.00
H2       0.40902    0.38764    0.42489   1.00
H2       0.57275    0.38333    0.38383   1.00
H2       0.43506    0.34425    0.41626   1.00
H2       0.55255    0.35771    0.42377   1.00
H2       0.45615    0.38970    0.40404   1.00
H2       0.61958    0.27008    0.41539   1.00
H2       0.38617    0.41221    0.32135   1.00
H2       0.62975    0.31197    0.44347   1.00
H2       0.37851    0.42551    0.37046   1.00
H2       0.58261    0.29140    0.44429   1.00
H2       0.42498    0.43149    0.34924   1.00
C4       0.98025    0.25346    0.25331   1.00
C4       1.02191    0.25499    0.25305   1.00
C3       0.95897    0.23058    0.28075   1.00
C3       1.04504    0.23711    0.28262   1.00
C3       0.95854    0.27542    0.22524   1.00
C3       1.04170    0.27509    0.22230   1.00
C2       0.89595    0.25185    0.25510   1.00
C2       1.10622    0.25642    0.25153   1.00
C3       0.91811    0.22990    0.28180   1.00
C3       1.08591    0.23759    0.28184   1.00
C3       0.91696    0.27411    0.22744   1.00
C3       1.08336    0.27472    0.22246   1.00
H1       0.97237    0.21325    0.30076   1.00
H1       1.03306    0.22339    0.30604   1.00
C5       0.97835    0.29771    0.19587   1.00
C5       1.01998    0.29504    0.19261   1.00
H1       0.90451    0.21293    0.30241   1.00
H1       1.10091    0.22401    0.30395   1.00
H1       0.90052    0.28954    0.20815   1.00
H1       1.09848    0.28846    0.20095   1.00
C6       0.95515    0.32404    0.16903   1.00
C6       1.04119    0.31261    0.15805   1.00
H2       0.93345    0.33978    0.18613   1.00
H2       1.06310    0.29200    0.14775   1.00
H2       0.97286    0.34780    0.15773   1.00
H2       1.02228    0.31505    0.13270   1.00
C6       0.93606    0.30173    0.13395   1.00
C6       1.05942    0.35359    0.16702   1.00
H2       0.92292    0.27461    0.14442   1.00
H2       1.07383    0.35287    0.19547   1.00
C6       0.90459    0.32395    0.10940   1.00
C6       1.08911    0.37058    0.13674   1.00
H2       0.95949    0.29267    0.11432   1.00
H2       1.03546    0.37437    0.17027   1.00
C6       0.86735    0.33245    0.13370   1.00
C6       1.12708    0.34599    0.13494   1.00
C6       0.92074    0.36277    0.09279   1.00
C6       1.07107    0.37321    0.09537   1.00
C6       0.89245    0.29778    0.07445   1.00
C6       1.10054    0.41247    0.14969   1.00
H2       0.85558    0.30568    0.14637   1.00
H2       1.14020    0.34304    0.16383   1.00
H2       0.87330    0.35270    0.15745   1.00
H2       1.12154    0.31679    0.12370   1.00
H2       0.84459    0.34549    0.11564   1.00
H2       1.14863    0.35954    0.11581   1.00
H2       0.89955    0.37664    0.07348   1.00
H2       1.09098    0.38764    0.07511   1.00
H2       0.92725    0.38333    0.11617   1.00
H2       1.06494    0.34425    0.08374   1.00
H2       0.94745    0.35771    0.07623   1.00
H2       1.04385    0.38970    0.09596   1.00
H2       0.88042    0.27008    0.08461   1.00
H2       1.11383    0.41221    0.17865   1.00
H2       0.87025    0.31197    0.05653   1.00
H2       1.12149    0.42551    0.12954   1.00
H2       0.91739    0.29140    0.05571   1.00
H2       1.07502    0.43149    0.15076   1.00
C4       0.74669    0.01975    0.25346   1.00
C4       0.74695    -0.02191   0.25499   1.00
C3       0.71925    0.04103    0.23058   1.00
C3       0.71738    -0.04504   0.23711   1.00
C3       0.77476    0.04146    0.27542   1.00
C3       0.77770    -0.04170   0.27509   1.00
C2       0.74490    0.10405    0.25185   1.00
C2       0.74847    -0.10622   0.25642   1.00
C3       0.71820    0.08189    0.22990   1.00
C3       0.71816    -0.08591   0.23759   1.00
C3       0.77256    0.08304    0.27411   1.00
C3       0.77754    -0.08336   0.27472   1.00
H1       0.69924    0.02763    0.21325   1.00
H1       0.69396    -0.03306   0.22339   1.00
C5       0.80413    0.02165    0.29771   1.00
C5       0.80739    -0.01998   0.29504   1.00
H1       0.69759    0.09549    0.21293   1.00
H1       0.69605    -0.10091   0.22401   1.00
H1       0.79185    0.09948    0.28954   1.00
H1       0.79905    -0.09848   0.28846   1.00
C6       0.83097    0.04485    0.32404   1.00
C6       0.84195    -0.04119   0.31261   1.00
H2       0.81387    0.06655    0.33978   1.00
H2       0.85225    -0.06310   0.29200   1.00
H2       0.84227    0.02714    0.34780   1.00
H2       0.86730    -0.02228   0.31505   1.00
C6       0.86605    0.06394    0.30173   1.00
C6       0.83298    -0.05942   0.35359   1.00
H2       0.85558    0.07708    0.27461   1.00
H2       0.80453    -0.07383   0.35287   1.00
C6       0.89060    0.09541    0.32395   1.00
C6       0.86326    -0.08911   0.37058   1.00
H2       0.88568    0.04051    0.29267   1.00
H2       0.82973    -0.03546   0.37437   1.00
C6       0.86630    0.13265    0.33245   1.00
C6       0.86506    -0.12708   0.34599   1.00
C6       0.90721    0.07926    0.36277   1.00
C6       0.90463    -0.07107   0.37321   1.00
C6       0.92555    0.10755    0.29778   1.00
C6       0.85031    -0.10054   0.41247   1.00
H2       0.85363    0.14442    0.30568   1.00
H2       0.83617    -0.14020   0.34304   1.00
H2       0.84255    0.12670    0.35270   1.00
H2       0.87630    -0.12154   0.31679   1.00
H2       0.88436    0.15541    0.34549   1.00
H2       0.88419    -0.14863   0.35954   1.00
H2       0.92652    0.10045    0.37664   1.00
H2       0.92489    -0.09098   0.38764   1.00
H2       0.88383    0.07275    0.38333   1.00
H2       0.91626    -0.06494   0.34425   1.00
H2       0.92377    0.05255    0.35771   1.00
H2       0.90404    -0.04385   0.38970   1.00
H2       0.91539    0.11958    0.27008   1.00
H2       0.82135    -0.11383   0.41221   1.00
H2       0.94347    0.12975    0.31197   1.00
H2       0.87046    -0.12149   0.42551   1.00
H2       0.94429    0.08261    0.29140   1.00
H2       0.84924    -0.07502   0.43149   1.00
C4       0.75346    0.24669    0.01975   1.00
C4       0.75499    0.24695    -0.02191   1.00
C3       0.73058    0.21925    0.04103   1.00
C3       0.73711    0.21738    -0.04504   1.00
C3       0.77542    0.27476    0.04146   1.00
C3       0.77509    0.27770    -0.04170   1.00
C2       0.75185    0.24490    0.10405   1.00
C2       0.75642    0.24847    -0.10622   1.00
C3       0.72990    0.21820    0.08189   1.00
C3       0.73759    0.21816    -0.08591   1.00
C3       0.77411    0.27256    0.08304   1.00
C3       0.77472    0.27754    -0.08336   1.00
H1       0.71325    0.19924    0.02763   1.00
H1       0.72339    0.19396    -0.03306   1.00
C5       0.79771    0.30413    0.02165   1.00
C5       0.79504    0.30739    -0.01998   1.00
H1       0.71293    0.19759    0.09549   1.00
H1       0.72401    0.19605    -0.10091   1.00
H1       0.78954    0.29185    0.09948   1.00
H1       0.78846    0.29905    -0.09848   1.00
C6       0.82404    0.33097    0.04485   1.00
C6       0.81261    0.34195    -0.04119   1.00
H2       0.83978    0.31387    0.06655   1.00
H2       0.79200    0.35225    -0.06310   1.00
H2       0.84780    0.34227    0.02714   1.00
H2       0.81505    0.36730    -0.02228   1.00
C6       0.80173    0.36605    0.06394   1.00
C6       0.85359    0.33298    -0.05942   1.00
H2       0.77461    0.35558    0.07708   1.00
H2       0.85287    0.30453    -0.07383   1.00
C6       0.82395    0.39060    0.09541   1.00
C6       0.87058    0.36326    -0.08911   1.00
H2       0.79267    0.38568    0.04051   1.00
H2       0.87437    0.32973    -0.03546   1.00
C6       0.83245    0.36630    0.13265   1.00
C6       0.84599    0.36506    -0.12708   1.00
C6       0.86277    0.40721    0.07926   1.00
C6       0.87321    0.40463    -0.07107   1.00
C6       0.79778    0.42555    0.10755   1.00
C6       0.91247    0.35031    -0.10054   1.00
H2       0.80568    0.35363    0.14442   1.00
H2       0.84304    0.33617    -0.14020   1.00
H2       0.85270    0.34255    0.12670   1.00
H2       0.81679    0.37630    -0.12154   1.00
H2       0.84549    0.38436    0.15541   1.00
H2       0.85954    0.38419    -0.14863   1.00
H2       0.87664    0.42652    0.10045   1.00
H2       0.88764    0.42489    -0.09098   1.00
H2       0.88333    0.38383    0.07275   1.00
H2       0.84425    0.41626    -0.06494   1.00
H2       0.85771    0.42377    0.05255   1.00
H2       0.88970    0.40404    -0.04385   1.00
H2       0.77008    0.41539    0.11958   1.00
H2       0.91221    0.32135    -0.11383   1.00
H2       0.81197    0.44347    0.12975   1.00
H2       0.92551    0.37046    -0.12149   1.00
H2       0.79140    0.44429    0.08261   1.00
H2       0.93149    0.34924    -0.07502   1.00
