data_IRMOF10_SG202_Ligand11_label_f.

_audit_creation_method             'generated by an auxiliary program of Tobunporous'

_symmetry_space_group_name_H-M     'P 1'
_symmetry_Int_Tables_number        1
_symmetry_cell_setting             triclinic

_cell_length_a                    34.2800
_cell_length_b                    34.2800
_cell_length_c                    34.2800
_cell_angle_alpha                 90.0000
_cell_angle_beta                  90.0000
_cell_angle_gamma                 90.0000

loop_
_atom_site_label
_atom_site_fract_x
_atom_site_fract_y
_atom_site_fract_z
_atom_site_occupancy
O1       0.75000    0.75000    0.75000   1.00
Zn1      0.71720    0.78280    0.78280   1.00
Zn1      0.78280    0.71720    0.78280   1.00
Zn1      0.78280    0.78280    0.71720   1.00
Zn1      0.71720    0.71720    0.71720   1.00
O2       0.72650    0.77350    0.83820   1.00
O2       0.72650    0.83820    0.77350   1.00
O2       0.66180    0.77350    0.77350   1.00
O2       0.77350    0.72650    0.83820   1.00
O2       0.83820    0.72650    0.77350   1.00
O2       0.77350    0.66180    0.77350   1.00
O2       0.77350    0.83820    0.72650   1.00
O2       0.83820    0.77350    0.72650   1.00
O2       0.77350    0.77350    0.66180   1.00
O2       0.66180    0.72650    0.72650   1.00
O2       0.72650    0.66180    0.72650   1.00
O2       0.72650    0.72650    0.66180   1.00
C1       0.75000    0.75000    0.85520   1.00
C1       0.75000    0.85520    0.75000   1.00
C1       0.64480    0.75000    0.75000   1.00
C1       0.85520    0.75000    0.75000   1.00
C1       0.75000    0.64480    0.75000   1.00
C1       0.75000    0.75000    0.64480   1.00
O1       0.25000    0.25000    0.75000   1.00
Zn1      0.21720    0.28280    0.78280   1.00
Zn1      0.28280    0.21720    0.78280   1.00
Zn1      0.28280    0.28280    0.71720   1.00
Zn1      0.21720    0.21720    0.71720   1.00
O2       0.22650    0.27350    0.83820   1.00
O2       0.22650    0.33820    0.77350   1.00
O2       0.16180    0.27350    0.77350   1.00
O2       0.27350    0.22650    0.83820   1.00
O2       0.33820    0.22650    0.77350   1.00
O2       0.27350    0.16180    0.77350   1.00
O2       0.27350    0.33820    0.72650   1.00
O2       0.33820    0.27350    0.72650   1.00
O2       0.27350    0.27350    0.66180   1.00
O2       0.16180    0.22650    0.72650   1.00
O2       0.22650    0.16180    0.72650   1.00
O2       0.22650    0.22650    0.66180   1.00
C1       0.25000    0.25000    0.85520   1.00
C1       0.25000    0.35520    0.75000   1.00
C1       0.14480    0.25000    0.75000   1.00
C1       0.35520    0.25000    0.75000   1.00
C1       0.25000    0.14480    0.75000   1.00
C1       0.25000    0.25000    0.64480   1.00
O1       0.25000    0.75000    0.25000   1.00
Zn1      0.21720    0.78280    0.28280   1.00
Zn1      0.28280    0.71720    0.28280   1.00
Zn1      0.28280    0.78280    0.21720   1.00
Zn1      0.21720    0.71720    0.21720   1.00
O2       0.22650    0.77350    0.33820   1.00
O2       0.22650    0.83820    0.27350   1.00
O2       0.16180    0.77350    0.27350   1.00
O2       0.27350    0.72650    0.33820   1.00
O2       0.33820    0.72650    0.27350   1.00
O2       0.27350    0.66180    0.27350   1.00
O2       0.27350    0.83820    0.22650   1.00
O2       0.33820    0.77350    0.22650   1.00
O2       0.27350    0.77350    0.16180   1.00
O2       0.16180    0.72650    0.22650   1.00
O2       0.22650    0.66180    0.22650   1.00
O2       0.22650    0.72650    0.16180   1.00
C1       0.25000    0.75000    0.35520   1.00
C1       0.25000    0.85520    0.25000   1.00
C1       0.14480    0.75000    0.25000   1.00
C1       0.35520    0.75000    0.25000   1.00
C1       0.25000    0.64480    0.25000   1.00
C1       0.25000    0.75000    0.14480   1.00
O1       0.75000    0.25000    0.25000   1.00
Zn1      0.71720    0.28280    0.28280   1.00
Zn1      0.78280    0.21720    0.28280   1.00
Zn1      0.78280    0.28280    0.21720   1.00
Zn1      0.71720    0.21720    0.21720   1.00
O2       0.72650    0.27350    0.33820   1.00
O2       0.72650    0.33820    0.27350   1.00
O2       0.66180    0.27350    0.27350   1.00
O2       0.77350    0.22650    0.33820   1.00
O2       0.83820    0.22650    0.27350   1.00
O2       0.77350    0.16180    0.27350   1.00
O2       0.77350    0.33820    0.22650   1.00
O2       0.83820    0.27350    0.22650   1.00
O2       0.77350    0.27350    0.16180   1.00
O2       0.66180    0.22650    0.22650   1.00
O2       0.72650    0.16180    0.22650   1.00
O2       0.72650    0.22650    0.16180   1.00
C1       0.75000    0.25000    0.35520   1.00
C1       0.75000    0.35520    0.25000   1.00
C1       0.64480    0.25000    0.25000   1.00
C1       0.85520    0.25000    0.25000   1.00
C1       0.75000    0.14480    0.25000   1.00
C1       0.75000    0.25000    0.14480   1.00
O1       0.25000    0.25000    0.25000   1.00
Zn1      0.28280    0.21720    0.21720   1.00
Zn1      0.21720    0.28280    0.21720   1.00
Zn1      0.21720    0.21720    0.28280   1.00
Zn1      0.28280    0.28280    0.28280   1.00
O2       0.27350    0.22650    0.16180   1.00
O2       0.27350    0.16180    0.22650   1.00
O2       0.33820    0.22650    0.22650   1.00
O2       0.22650    0.27350    0.16180   1.00
O2       0.16180    0.27350    0.22650   1.00
O2       0.22650    0.33820    0.22650   1.00
O2       0.22650    0.16180    0.27350   1.00
O2       0.16180    0.22650    0.27350   1.00
O2       0.22650    0.22650    0.33820   1.00
O2       0.33820    0.27350    0.27350   1.00
O2       0.27350    0.33820    0.27350   1.00
O2       0.27350    0.27350    0.33820   1.00
C1       0.25000    0.25000    0.14480   1.00
C1       0.25000    0.14480    0.25000   1.00
C1       0.35520    0.25000    0.25000   1.00
C1       0.14480    0.25000    0.25000   1.00
C1       0.25000    0.35520    0.25000   1.00
C1       0.25000    0.25000    0.35520   1.00
O1       0.75000    0.75000    0.25000   1.00
Zn1      0.78280    0.71720    0.21720   1.00
Zn1      0.71720    0.78280    0.21720   1.00
Zn1      0.71720    0.71720    0.28280   1.00
Zn1      0.78280    0.78280    0.28280   1.00
O2       0.77350    0.72650    0.16180   1.00
O2       0.77350    0.66180    0.22650   1.00
O2       0.83820    0.72650    0.22650   1.00
O2       0.72650    0.77350    0.16180   1.00
O2       0.66180    0.77350    0.22650   1.00
O2       0.72650    0.83820    0.22650   1.00
O2       0.72650    0.66180    0.27350   1.00
O2       0.66180    0.72650    0.27350   1.00
O2       0.72650    0.72650    0.33820   1.00
O2       0.83820    0.77350    0.27350   1.00
O2       0.77350    0.83820    0.27350   1.00
O2       0.77350    0.77350    0.33820   1.00
C1       0.75000    0.75000    0.14480   1.00
C1       0.75000    0.64480    0.25000   1.00
C1       0.85520    0.75000    0.25000   1.00
C1       0.64480    0.75000    0.25000   1.00
C1       0.75000    0.85520    0.25000   1.00
C1       0.75000    0.75000    0.35520   1.00
O1       0.75000    0.25000    0.75000   1.00
Zn1      0.78280    0.21720    0.71720   1.00
Zn1      0.71720    0.28280    0.71720   1.00
Zn1      0.71720    0.21720    0.78280   1.00
Zn1      0.78280    0.28280    0.78280   1.00
O2       0.77350    0.22650    0.66180   1.00
O2       0.77350    0.16180    0.72650   1.00
O2       0.83820    0.22650    0.72650   1.00
O2       0.72650    0.27350    0.66180   1.00
O2       0.66180    0.27350    0.72650   1.00
O2       0.72650    0.33820    0.72650   1.00
O2       0.72650    0.16180    0.77350   1.00
O2       0.66180    0.22650    0.77350   1.00
O2       0.72650    0.22650    0.83820   1.00
O2       0.83820    0.27350    0.77350   1.00
O2       0.77350    0.33820    0.77350   1.00
O2       0.77350    0.27350    0.83820   1.00
C1       0.75000    0.25000    0.64480   1.00
C1       0.75000    0.14480    0.75000   1.00
C1       0.85520    0.25000    0.75000   1.00
C1       0.64480    0.25000    0.75000   1.00
C1       0.75000    0.35520    0.75000   1.00
C1       0.75000    0.25000    0.85520   1.00
O1       0.25000    0.75000    0.75000   1.00
Zn1      0.28280    0.71720    0.71720   1.00
Zn1      0.21720    0.78280    0.71720   1.00
Zn1      0.21720    0.71720    0.78280   1.00
Zn1      0.28280    0.78280    0.78280   1.00
O2       0.27350    0.72650    0.66180   1.00
O2       0.27350    0.66180    0.72650   1.00
O2       0.33820    0.72650    0.72650   1.00
O2       0.22650    0.77350    0.66180   1.00
O2       0.16180    0.77350    0.72650   1.00
O2       0.22650    0.83820    0.72650   1.00
O2       0.22650    0.66180    0.77350   1.00
O2       0.16180    0.72650    0.77350   1.00
O2       0.22650    0.72650    0.83820   1.00
O2       0.33820    0.77350    0.77350   1.00
O2       0.27350    0.83820    0.77350   1.00
O2       0.27350    0.77350    0.83820   1.00
C1       0.25000    0.75000    0.64480   1.00
C1       0.25000    0.64480    0.75000   1.00
C1       0.35520    0.75000    0.75000   1.00
C1       0.14480    0.75000    0.75000   1.00
C1       0.25000    0.85520    0.75000   1.00
C1       0.25000    0.75000    0.85520   1.00
C4       0.75020    0.74997    0.97915   1.00
C4       0.74980    0.75003    1.02085   1.00
C3a      0.78065    0.76837    0.95746   1.00
C3       0.77306    0.72370    1.04232   1.00
C3       0.72033    0.73148    0.95768   1.00
C3a      0.72597    0.77644    1.04254   1.00
C2       0.74999    0.74992    0.89488   1.00
C2       0.74998    0.74992    1.10512   1.00
C3       0.78002    0.76811    0.91595   1.00
C3       0.77320    0.72376    1.08363   1.00
C3       0.72021    0.73158    0.91637   1.00
C3       0.72650    0.77601    1.08405   1.00
C5       0.81396    0.78909    0.97772   1.00
H1       0.79154    0.70321    1.02691   1.00
H1       0.80312    0.78231    0.89979   1.00
H1       0.79162    0.70324    1.09901   1.00
H1       0.69664    0.71726    0.90099   1.00
H1       0.70848    0.79628    1.10021   1.00
C5       0.70006    0.80591    1.02228   1.00
H1       0.69672    0.71720    0.97309   1.00
H2       0.69308    0.83020    1.04256   1.00
H2       0.71576    0.81932    0.99731   1.00
H2       0.82767    0.81033    0.95744   1.00
H2       0.80281    0.80647    1.00269   1.00
N1       0.66395    0.78768    1.00857   1.00
C6       0.63556    0.77275    1.03073   1.00
C6       0.65256    0.78380    0.97154   1.00
C6       0.60590    0.75867    1.00759   1.00
C6       0.61670    0.76570    0.96995   1.00
H3       0.63638    0.77175    1.06197   1.00
H3       0.66941    0.79324    0.94700   1.00
H3       0.57934    0.74485    1.01713   1.00
H3       0.60028    0.75842    0.94425   1.00
N1       0.84327    0.76121    0.99143   1.00
C6       0.85305    0.75420    1.02846   1.00
C6       0.86613    0.73871    0.96927   1.00
C6       0.88215    0.72652    1.03005   1.00
C6       0.89046    0.71666    0.99241   1.00
H3       0.83965    0.76811    1.05300   1.00
H3       0.86506    0.73799    0.93803   1.00
H3       0.89577    0.71480    1.05575   1.00
H3       0.91189    0.69576    0.98287   1.00
C4       0.74997    0.97915    0.75020   1.00
C4       0.75003    1.02085    0.74980   1.00
C3a      0.76837    0.95746    0.78065   1.00
C3       0.72370    1.04232    0.77306   1.00
C3       0.73148    0.95768    0.72033   1.00
C3a      0.77644    1.04254    0.72597   1.00
C2       0.74992    0.89488    0.74999   1.00
C2       0.74992    1.10512    0.74998   1.00
C3       0.76811    0.91595    0.78002   1.00
C3       0.72376    1.08363    0.77320   1.00
C3       0.73158    0.91637    0.72021   1.00
C3       0.77601    1.08405    0.72650   1.00
C5       0.78909    0.97772    0.81396   1.00
H1       0.70321    1.02691    0.79154   1.00
H1       0.78231    0.89979    0.80312   1.00
H1       0.70324    1.09901    0.79162   1.00
H1       0.71726    0.90099    0.69664   1.00
H1       0.79628    1.10021    0.70848   1.00
C5       0.80591    1.02228    0.70006   1.00
H1       0.71720    0.97309    0.69672   1.00
H2       0.83020    1.04256    0.69308   1.00
H2       0.81932    0.99731    0.71576   1.00
H2       0.81033    0.95744    0.82767   1.00
H2       0.80647    1.00269    0.80281   1.00
N1       0.78768    1.00857    0.66395   1.00
C6       0.77275    1.03073    0.63556   1.00
C6       0.78380    0.97154    0.65256   1.00
C6       0.75867    1.00759    0.60590   1.00
C6       0.76570    0.96995    0.61670   1.00
H3       0.77175    1.06197    0.63638   1.00
H3       0.79324    0.94700    0.66941   1.00
H3       0.74485    1.01713    0.57934   1.00
H3       0.75842    0.94425    0.60028   1.00
N1       0.76121    0.99143    0.84327   1.00
C6       0.75420    1.02846    0.85305   1.00
C6       0.73871    0.96927    0.86613   1.00
C6       0.72652    1.03005    0.88215   1.00
C6       0.71666    0.99241    0.89046   1.00
H3       0.76811    1.05300    0.83965   1.00
H3       0.73799    0.93803    0.86506   1.00
H3       0.71480    1.05575    0.89577   1.00
H3       0.69576    0.98287    0.91189   1.00
C4       0.52085    0.75020    0.75003   1.00
C4       0.47915    0.74980    0.74997   1.00
C3a      0.54254    0.78065    0.73163   1.00
C3       0.45768    0.77306    0.77630   1.00
C3       0.54232    0.72033    0.76852   1.00
C3a      0.45746    0.72597    0.72356   1.00
C2       0.60512    0.74999    0.75008   1.00
C2       0.39488    0.74998    0.75008   1.00
C3       0.58405    0.78002    0.73189   1.00
C3       0.41637    0.77320    0.77624   1.00
C3       0.58363    0.72021    0.76842   1.00
C3       0.41595    0.72650    0.72399   1.00
C5       0.52228    0.81396    0.71091   1.00
H1       0.47309    0.79154    0.79679   1.00
H1       0.60021    0.80312    0.71769   1.00
H1       0.40099    0.79162    0.79676   1.00
H1       0.59901    0.69664    0.78274   1.00
H1       0.39979    0.70848    0.70372   1.00
C5       0.47772    0.70006    0.69409   1.00
H1       0.52691    0.69672    0.78280   1.00
H2       0.45744    0.69308    0.66980   1.00
H2       0.50269    0.71576    0.68068   1.00
H2       0.54256    0.82767    0.68967   1.00
H2       0.49731    0.80281    0.69353   1.00
N1       0.49143    0.66395    0.71232   1.00
C6       0.46927    0.63556    0.72725   1.00
C6       0.52846    0.65256    0.71620   1.00
C6       0.49241    0.60590    0.74133   1.00
C6       0.53005    0.61670    0.73430   1.00
H3       0.43803    0.63638    0.72825   1.00
H3       0.55300    0.66941    0.70676   1.00
H3       0.48287    0.57934    0.75515   1.00
H3       0.55575    0.60028    0.74158   1.00
N1       0.50857    0.84327    0.73879   1.00
C6       0.47154    0.85305    0.74580   1.00
C6       0.53073    0.86613    0.76129   1.00
C6       0.46995    0.88215    0.77348   1.00
C6       0.50759    0.89046    0.78334   1.00
H3       0.44700    0.83965    0.73189   1.00
H3       0.56197    0.86506    0.76201   1.00
H3       0.44425    0.89577    0.78520   1.00
H3       0.51713    0.91189    0.80424   1.00
C4       0.97915    0.75020    0.74997   1.00
C4       1.02085    0.74980    0.75003   1.00
C3a      0.95746    0.78065    0.76837   1.00
C3       1.04232    0.77306    0.72370   1.00
C3       0.95768    0.72033    0.73148   1.00
C3a      1.04254    0.72597    0.77644   1.00
C2       0.89488    0.74999    0.74992   1.00
C2       1.10512    0.74998    0.74992   1.00
C3       0.91595    0.78002    0.76811   1.00
C3       1.08363    0.77320    0.72376   1.00
C3       0.91637    0.72021    0.73158   1.00
C3       1.08405    0.72650    0.77601   1.00
C5       0.97772    0.81396    0.78909   1.00
H1       1.02691    0.79154    0.70321   1.00
H1       0.89979    0.80312    0.78231   1.00
H1       1.09901    0.79162    0.70324   1.00
H1       0.90099    0.69664    0.71726   1.00
H1       1.10021    0.70848    0.79628   1.00
C5       1.02228    0.70006    0.80591   1.00
H1       0.97309    0.69672    0.71720   1.00
H2       1.04256    0.69308    0.83020   1.00
H2       0.99731    0.71576    0.81932   1.00
H2       0.95744    0.82767    0.81033   1.00
H2       1.00269    0.80281    0.80647   1.00
N1       1.00857    0.66395    0.78768   1.00
C6       1.03073    0.63556    0.77275   1.00
C6       0.97154    0.65256    0.78380   1.00
C6       1.00759    0.60590    0.75867   1.00
C6       0.96995    0.61670    0.76570   1.00
H3       1.06197    0.63638    0.77175   1.00
H3       0.94700    0.66941    0.79324   1.00
H3       1.01713    0.57934    0.74485   1.00
H3       0.94425    0.60028    0.75842   1.00
N1       0.99143    0.84327    0.76121   1.00
C6       1.02846    0.85305    0.75420   1.00
C6       0.96927    0.86613    0.73871   1.00
C6       1.03005    0.88215    0.72652   1.00
C6       0.99241    0.89046    0.71666   1.00
H3       1.05300    0.83965    0.76811   1.00
H3       0.93803    0.86506    0.73799   1.00
H3       1.05575    0.89577    0.71480   1.00
H3       0.98287    0.91189    0.69576   1.00
C4       0.75003    0.52085    0.75020   1.00
C4       0.74997    0.47915    0.74980   1.00
C3a      0.73163    0.54254    0.78065   1.00
C3       0.77630    0.45768    0.77306   1.00
C3       0.76852    0.54232    0.72033   1.00
C3a      0.72356    0.45746    0.72597   1.00
C2       0.75008    0.60512    0.74999   1.00
C2       0.75008    0.39488    0.74998   1.00
C3       0.73189    0.58405    0.78002   1.00
C3       0.77624    0.41637    0.77320   1.00
C3       0.76842    0.58363    0.72021   1.00
C3       0.72399    0.41595    0.72650   1.00
C5       0.71091    0.52228    0.81396   1.00
H1       0.79679    0.47309    0.79154   1.00
H1       0.71769    0.60021    0.80312   1.00
H1       0.79676    0.40099    0.79162   1.00
H1       0.78274    0.59901    0.69664   1.00
H1       0.70372    0.39979    0.70848   1.00
C5       0.69409    0.47772    0.70006   1.00
H1       0.78280    0.52691    0.69672   1.00
H2       0.66980    0.45744    0.69308   1.00
H2       0.68068    0.50269    0.71576   1.00
H2       0.68967    0.54256    0.82767   1.00
H2       0.69353    0.49731    0.80281   1.00
N1       0.71232    0.49143    0.66395   1.00
C6       0.72725    0.46927    0.63556   1.00
C6       0.71620    0.52846    0.65256   1.00
C6       0.74133    0.49241    0.60590   1.00
C6       0.73430    0.53005    0.61670   1.00
H3       0.72825    0.43803    0.63638   1.00
H3       0.70676    0.55300    0.66941   1.00
H3       0.75515    0.48287    0.57934   1.00
H3       0.74158    0.55575    0.60028   1.00
N1       0.73879    0.50857    0.84327   1.00
C6       0.74580    0.47154    0.85305   1.00
C6       0.76129    0.53073    0.86613   1.00
C6       0.77348    0.46995    0.88215   1.00
C6       0.78334    0.50759    0.89046   1.00
H3       0.73189    0.44700    0.83965   1.00
H3       0.76201    0.56197    0.86506   1.00
H3       0.78520    0.44425    0.89577   1.00
H3       0.80424    0.51713    0.91189   1.00
C4       0.75020    0.75003    0.52085   1.00
C4       0.74980    0.74997    0.47915   1.00
C3a      0.78065    0.73163    0.54254   1.00
C3       0.77306    0.77630    0.45768   1.00
C3       0.72033    0.76852    0.54232   1.00
C3a      0.72597    0.72356    0.45746   1.00
C2       0.74999    0.75008    0.60512   1.00
C2       0.74998    0.75008    0.39488   1.00
C3       0.78002    0.73189    0.58405   1.00
C3       0.77320    0.77624    0.41637   1.00
C3       0.72021    0.76842    0.58363   1.00
C3       0.72650    0.72399    0.41595   1.00
C5       0.81396    0.71091    0.52228   1.00
H1       0.79154    0.79679    0.47309   1.00
H1       0.80312    0.71769    0.60021   1.00
H1       0.79162    0.79676    0.40099   1.00
H1       0.69664    0.78274    0.59901   1.00
H1       0.70848    0.70372    0.39979   1.00
C5       0.70006    0.69409    0.47772   1.00
H1       0.69672    0.78280    0.52691   1.00
H2       0.69308    0.66980    0.45744   1.00
H2       0.71576    0.68068    0.50269   1.00
H2       0.82767    0.68967    0.54256   1.00
H2       0.80281    0.69353    0.49731   1.00
N1       0.66395    0.71232    0.49143   1.00
C6       0.63556    0.72725    0.46927   1.00
C6       0.65256    0.71620    0.52846   1.00
C6       0.60590    0.74133    0.49241   1.00
C6       0.61670    0.73430    0.53005   1.00
H3       0.63638    0.72825    0.43803   1.00
H3       0.66941    0.70676    0.55300   1.00
H3       0.57934    0.75515    0.48287   1.00
H3       0.60028    0.74158    0.55575   1.00
N1       0.84327    0.73879    0.50857   1.00
C6       0.85305    0.74580    0.47154   1.00
C6       0.86613    0.76129    0.53073   1.00
C6       0.88215    0.77348    0.46995   1.00
C6       0.89046    0.78334    0.50759   1.00
H3       0.83965    0.73189    0.44700   1.00
H3       0.86506    0.76201    0.56197   1.00
H3       0.89577    0.78520    0.44425   1.00
H3       0.91189    0.80424    0.51713   1.00
C4       0.25020    0.24997    0.97915   1.00
C4       0.24980    0.25003    1.02085   1.00
C3a      0.28065    0.26837    0.95746   1.00
C3       0.27306    0.22370    1.04232   1.00
C3       0.22033    0.23148    0.95768   1.00
C3a      0.22597    0.27644    1.04254   1.00
C2       0.24999    0.24992    0.89488   1.00
C2       0.24998    0.24992    1.10512   1.00
C3       0.28002    0.26811    0.91595   1.00
C3       0.27320    0.22376    1.08363   1.00
C3       0.22021    0.23158    0.91637   1.00
C3       0.22650    0.27601    1.08405   1.00
C5       0.31396    0.28909    0.97772   1.00
H1       0.29154    0.20321    1.02691   1.00
H1       0.30312    0.28231    0.89979   1.00
H1       0.29162    0.20324    1.09901   1.00
H1       0.19664    0.21726    0.90099   1.00
H1       0.20848    0.29628    1.10021   1.00
C5       0.20006    0.30591    1.02228   1.00
H1       0.19672    0.21720    0.97309   1.00
H2       0.19308    0.33020    1.04256   1.00
H2       0.21576    0.31932    0.99731   1.00
H2       0.32767    0.31033    0.95744   1.00
H2       0.30281    0.30647    1.00269   1.00
N1       0.16395    0.28768    1.00857   1.00
C6       0.13556    0.27275    1.03073   1.00
C6       0.15256    0.28380    0.97154   1.00
C6       0.10590    0.25867    1.00759   1.00
C6       0.11670    0.26570    0.96995   1.00
H3       0.13638    0.27175    1.06197   1.00
H3       0.16941    0.29324    0.94700   1.00
H3       0.07934    0.24485    1.01713   1.00
H3       0.10028    0.25842    0.94425   1.00
N1       0.34327    0.26121    0.99143   1.00
C6       0.35305    0.25420    1.02846   1.00
C6       0.36613    0.23871    0.96927   1.00
C6       0.38215    0.22652    1.03005   1.00
C6       0.39046    0.21666    0.99241   1.00
H3       0.33965    0.26811    1.05300   1.00
H3       0.36506    0.23799    0.93803   1.00
H3       0.39577    0.21480    1.05575   1.00
H3       0.41189    0.19576    0.98287   1.00
C4       0.24997    0.47915    0.75020   1.00
C4       0.25003    0.52085    0.74980   1.00
C3a      0.26837    0.45746    0.78065   1.00
C3       0.22370    0.54232    0.77306   1.00
C3       0.23148    0.45768    0.72033   1.00
C3a      0.27644    0.54254    0.72597   1.00
C2       0.24992    0.39488    0.74999   1.00
C2       0.24992    0.60512    0.74998   1.00
C3       0.26811    0.41595    0.78002   1.00
C3       0.22376    0.58363    0.77320   1.00
C3       0.23158    0.41637    0.72021   1.00
C3       0.27601    0.58405    0.72650   1.00
C5       0.28909    0.47772    0.81396   1.00
H1       0.20321    0.52691    0.79154   1.00
H1       0.28231    0.39979    0.80312   1.00
H1       0.20324    0.59901    0.79162   1.00
H1       0.21726    0.40099    0.69664   1.00
H1       0.29628    0.60021    0.70848   1.00
C5       0.30591    0.52228    0.70006   1.00
H1       0.21720    0.47309    0.69672   1.00
H2       0.33020    0.54256    0.69308   1.00
H2       0.31932    0.49731    0.71576   1.00
H2       0.31033    0.45744    0.82767   1.00
H2       0.30647    0.50269    0.80281   1.00
N1       0.28768    0.50857    0.66395   1.00
C6       0.27275    0.53073    0.63556   1.00
C6       0.28380    0.47154    0.65256   1.00
C6       0.25867    0.50759    0.60590   1.00
C6       0.26570    0.46995    0.61670   1.00
H3       0.27175    0.56197    0.63638   1.00
H3       0.29324    0.44700    0.66941   1.00
H3       0.24485    0.51713    0.57934   1.00
H3       0.25842    0.44425    0.60028   1.00
N1       0.26121    0.49143    0.84327   1.00
C6       0.25420    0.52846    0.85305   1.00
C6       0.23871    0.46927    0.86613   1.00
C6       0.22652    0.53005    0.88215   1.00
C6       0.21666    0.49241    0.89046   1.00
H3       0.26811    0.55300    0.83965   1.00
H3       0.23799    0.43803    0.86506   1.00
H3       0.21480    0.55575    0.89577   1.00
H3       0.19576    0.48287    0.91189   1.00
C4       0.02085    0.25020    0.75003   1.00
C4       -0.02085   0.24980    0.74997   1.00
C3a      0.04254    0.28065    0.73163   1.00
C3       -0.04232   0.27306    0.77630   1.00
C3       0.04232    0.22033    0.76852   1.00
C3a      -0.04254   0.22597    0.72356   1.00
C2       0.10512    0.24999    0.75008   1.00
C2       -0.10512   0.24998    0.75008   1.00
C3       0.08405    0.28002    0.73189   1.00
C3       -0.08363   0.27320    0.77624   1.00
C3       0.08363    0.22021    0.76842   1.00
C3       -0.08405   0.22650    0.72399   1.00
C5       0.02228    0.31396    0.71091   1.00
H1       -0.02691   0.29154    0.79679   1.00
H1       0.10021    0.30312    0.71769   1.00
H1       -0.09901   0.29162    0.79676   1.00
H1       0.09901    0.19664    0.78274   1.00
H1       -0.10021   0.20848    0.70372   1.00
C5       -0.02228   0.20006    0.69409   1.00
H1       0.02691    0.19672    0.78280   1.00
H2       -0.04256   0.19308    0.66980   1.00
H2       0.00269    0.21576    0.68068   1.00
H2       0.04256    0.32767    0.68967   1.00
H2       -0.00269   0.30281    0.69353   1.00
N1       -0.00857   0.16395    0.71232   1.00
C6       -0.03073   0.13556    0.72725   1.00
C6       0.02846    0.15256    0.71620   1.00
C6       -0.00759   0.10590    0.74133   1.00
C6       0.03005    0.11670    0.73430   1.00
H3       -0.06197   0.13638    0.72825   1.00
H3       0.05300    0.16941    0.70676   1.00
H3       -0.01713   0.07934    0.75515   1.00
H3       0.05575    0.10028    0.74158   1.00
N1       0.00857    0.34327    0.73879   1.00
C6       -0.02846   0.35305    0.74580   1.00
C6       0.03073    0.36613    0.76129   1.00
C6       -0.03005   0.38215    0.77348   1.00
C6       0.00759    0.39046    0.78334   1.00
H3       -0.05300   0.33965    0.73189   1.00
H3       0.06197    0.36506    0.76201   1.00
H3       -0.05575   0.39577    0.78520   1.00
H3       0.01713    0.41189    0.80424   1.00
C4       0.47915    0.25020    0.74997   1.00
C4       0.52085    0.24980    0.75003   1.00
C3a      0.45746    0.28065    0.76837   1.00
C3       0.54232    0.27306    0.72370   1.00
C3       0.45768    0.22033    0.73148   1.00
C3a      0.54254    0.22597    0.77644   1.00
C2       0.39488    0.24999    0.74992   1.00
C2       0.60512    0.24998    0.74992   1.00
C3       0.41595    0.28002    0.76811   1.00
C3       0.58363    0.27320    0.72376   1.00
C3       0.41637    0.22021    0.73158   1.00
C3       0.58405    0.22650    0.77601   1.00
C5       0.47772    0.31396    0.78909   1.00
H1       0.52691    0.29154    0.70321   1.00
H1       0.39979    0.30312    0.78231   1.00
H1       0.59901    0.29162    0.70324   1.00
H1       0.40099    0.19664    0.71726   1.00
H1       0.60021    0.20848    0.79628   1.00
C5       0.52228    0.20006    0.80591   1.00
H1       0.47309    0.19672    0.71720   1.00
H2       0.54256    0.19308    0.83020   1.00
H2       0.49731    0.21576    0.81932   1.00
H2       0.45744    0.32767    0.81033   1.00
H2       0.50269    0.30281    0.80647   1.00
N1       0.50857    0.16395    0.78768   1.00
C6       0.53073    0.13556    0.77275   1.00
C6       0.47154    0.15256    0.78380   1.00
C6       0.50759    0.10590    0.75867   1.00
C6       0.46995    0.11670    0.76570   1.00
H3       0.56197    0.13638    0.77175   1.00
H3       0.44700    0.16941    0.79324   1.00
H3       0.51713    0.07934    0.74485   1.00
H3       0.44425    0.10028    0.75842   1.00
N1       0.49143    0.34327    0.76121   1.00
C6       0.52846    0.35305    0.75420   1.00
C6       0.46927    0.36613    0.73871   1.00
C6       0.53005    0.38215    0.72652   1.00
C6       0.49241    0.39046    0.71666   1.00
H3       0.55300    0.33965    0.76811   1.00
H3       0.43803    0.36506    0.73799   1.00
H3       0.55575    0.39577    0.71480   1.00
H3       0.48287    0.41189    0.69576   1.00
C4       0.25003    0.02085    0.75020   1.00
C4       0.24997    -0.02085   0.74980   1.00
C3a      0.23163    0.04254    0.78065   1.00
C3       0.27630    -0.04232   0.77306   1.00
C3       0.26852    0.04232    0.72033   1.00
C3a      0.22356    -0.04254   0.72597   1.00
C2       0.25008    0.10512    0.74999   1.00
C2       0.25008    -0.10512   0.74998   1.00
C3       0.23189    0.08405    0.78002   1.00
C3       0.27624    -0.08363   0.77320   1.00
C3       0.26842    0.08363    0.72021   1.00
C3       0.22399    -0.08405   0.72650   1.00
C5       0.21091    0.02228    0.81396   1.00
H1       0.29679    -0.02691   0.79154   1.00
H1       0.21769    0.10021    0.80312   1.00
H1       0.29676    -0.09901   0.79162   1.00
H1       0.28274    0.09901    0.69664   1.00
H1       0.20372    -0.10021   0.70848   1.00
C5       0.19409    -0.02228   0.70006   1.00
H1       0.28280    0.02691    0.69672   1.00
H2       0.16980    -0.04256   0.69308   1.00
H2       0.18068    0.00269    0.71576   1.00
H2       0.18967    0.04256    0.82767   1.00
H2       0.19353    -0.00269   0.80281   1.00
N1       0.21232    -0.00857   0.66395   1.00
C6       0.22725    -0.03073   0.63556   1.00
C6       0.21620    0.02846    0.65256   1.00
C6       0.24133    -0.00759   0.60590   1.00
C6       0.23430    0.03005    0.61670   1.00
H3       0.22825    -0.06197   0.63638   1.00
H3       0.20676    0.05300    0.66941   1.00
H3       0.25515    -0.01713   0.57934   1.00
H3       0.24158    0.05575    0.60028   1.00
N1       0.23879    0.00857    0.84327   1.00
C6       0.24580    -0.02846   0.85305   1.00
C6       0.26129    0.03073    0.86613   1.00
C6       0.27348    -0.03005   0.88215   1.00
C6       0.28334    0.00759    0.89046   1.00
H3       0.23189    -0.05300   0.83965   1.00
H3       0.26201    0.06197    0.86506   1.00
H3       0.28520    -0.05575   0.89577   1.00
H3       0.30424    0.01713    0.91189   1.00
C4       0.25020    0.25003    0.52085   1.00
C4       0.24980    0.24997    0.47915   1.00
C3a      0.28065    0.23163    0.54254   1.00
C3       0.27306    0.27630    0.45768   1.00
C3       0.22033    0.26852    0.54232   1.00
C3a      0.22597    0.22356    0.45746   1.00
C2       0.24999    0.25008    0.60512   1.00
C2       0.24998    0.25008    0.39488   1.00
C3       0.28002    0.23189    0.58405   1.00
C3       0.27320    0.27624    0.41637   1.00
C3       0.22021    0.26842    0.58363   1.00
C3       0.22650    0.22399    0.41595   1.00
C5       0.31396    0.21091    0.52228   1.00
H1       0.29154    0.29679    0.47309   1.00
H1       0.30312    0.21769    0.60021   1.00
H1       0.29162    0.29676    0.40099   1.00
H1       0.19664    0.28274    0.59901   1.00
H1       0.20848    0.20372    0.39979   1.00
C5       0.20006    0.19409    0.47772   1.00
H1       0.19672    0.28280    0.52691   1.00
H2       0.19308    0.16980    0.45744   1.00
H2       0.21576    0.18068    0.50269   1.00
H2       0.32767    0.18967    0.54256   1.00
H2       0.30281    0.19353    0.49731   1.00
N1       0.16395    0.21232    0.49143   1.00
C6       0.13556    0.22725    0.46927   1.00
C6       0.15256    0.21620    0.52846   1.00
C6       0.10590    0.24133    0.49241   1.00
C6       0.11670    0.23430    0.53005   1.00
H3       0.13638    0.22825    0.43803   1.00
H3       0.16941    0.20676    0.55300   1.00
H3       0.07934    0.25515    0.48287   1.00
H3       0.10028    0.24158    0.55575   1.00
N1       0.34327    0.23879    0.50857   1.00
C6       0.35305    0.24580    0.47154   1.00
C6       0.36613    0.26129    0.53073   1.00
C6       0.38215    0.27348    0.46995   1.00
C6       0.39046    0.28334    0.50759   1.00
H3       0.33965    0.23189    0.44700   1.00
H3       0.36506    0.26201    0.56197   1.00
H3       0.39577    0.28520    0.44425   1.00
H3       0.41189    0.30424    0.51713   1.00
C4       0.25020    0.74997    0.47915   1.00
C4       0.24980    0.75003    0.52085   1.00
C3a      0.28065    0.76837    0.45746   1.00
C3       0.27306    0.72370    0.54232   1.00
C3       0.22033    0.73148    0.45768   1.00
C3a      0.22597    0.77644    0.54254   1.00
C2       0.24999    0.74992    0.39488   1.00
C2       0.24998    0.74992    0.60512   1.00
C3       0.28002    0.76811    0.41595   1.00
C3       0.27320    0.72376    0.58363   1.00
C3       0.22021    0.73158    0.41637   1.00
C3       0.22650    0.77601    0.58405   1.00
C5       0.31396    0.78909    0.47772   1.00
H1       0.29154    0.70321    0.52691   1.00
H1       0.30312    0.78231    0.39979   1.00
H1       0.29162    0.70324    0.59901   1.00
H1       0.19664    0.71726    0.40099   1.00
H1       0.20848    0.79628    0.60021   1.00
C5       0.20006    0.80591    0.52228   1.00
H1       0.19672    0.71720    0.47309   1.00
H2       0.19308    0.83020    0.54256   1.00
H2       0.21576    0.81932    0.49731   1.00
H2       0.32767    0.81033    0.45744   1.00
H2       0.30281    0.80647    0.50269   1.00
N1       0.16395    0.78768    0.50857   1.00
C6       0.13556    0.77275    0.53073   1.00
C6       0.15256    0.78380    0.47154   1.00
C6       0.10590    0.75867    0.50759   1.00
C6       0.11670    0.76570    0.46995   1.00
H3       0.13638    0.77175    0.56197   1.00
H3       0.16941    0.79324    0.44700   1.00
H3       0.07934    0.74485    0.51713   1.00
H3       0.10028    0.75842    0.44425   1.00
N1       0.34327    0.76121    0.49143   1.00
C6       0.35305    0.75420    0.52846   1.00
C6       0.36613    0.73871    0.46927   1.00
C6       0.38215    0.72652    0.53005   1.00
C6       0.39046    0.71666    0.49241   1.00
H3       0.33965    0.76811    0.55300   1.00
H3       0.36506    0.73799    0.43803   1.00
H3       0.39577    0.71480    0.55575   1.00
H3       0.41189    0.69576    0.48287   1.00
C4       0.24997    0.97915    0.25020   1.00
C4       0.25003    1.02085    0.24980   1.00
C3a      0.26837    0.95746    0.28065   1.00
C3       0.22370    1.04232    0.27306   1.00
C3       0.23148    0.95768    0.22033   1.00
C3a      0.27644    1.04254    0.22597   1.00
C2       0.24992    0.89488    0.24999   1.00
C2       0.24992    1.10512    0.24998   1.00
C3       0.26811    0.91595    0.28002   1.00
C3       0.22376    1.08363    0.27320   1.00
C3       0.23158    0.91637    0.22021   1.00
C3       0.27601    1.08405    0.22650   1.00
C5       0.28909    0.97772    0.31396   1.00
H1       0.20321    1.02691    0.29154   1.00
H1       0.28231    0.89979    0.30312   1.00
H1       0.20324    1.09901    0.29162   1.00
H1       0.21726    0.90099    0.19664   1.00
H1       0.29628    1.10021    0.20848   1.00
C5       0.30591    1.02228    0.20006   1.00
H1       0.21720    0.97309    0.19672   1.00
H2       0.33020    1.04256    0.19308   1.00
H2       0.31932    0.99731    0.21576   1.00
H2       0.31033    0.95744    0.32767   1.00
H2       0.30647    1.00269    0.30281   1.00
N1       0.28768    1.00857    0.16395   1.00
C6       0.27275    1.03073    0.13556   1.00
C6       0.28380    0.97154    0.15256   1.00
C6       0.25867    1.00759    0.10590   1.00
C6       0.26570    0.96995    0.11670   1.00
H3       0.27175    1.06197    0.13638   1.00
H3       0.29324    0.94700    0.16941   1.00
H3       0.24485    1.01713    0.07934   1.00
H3       0.25842    0.94425    0.10028   1.00
N1       0.26121    0.99143    0.34327   1.00
C6       0.25420    1.02846    0.35305   1.00
C6       0.23871    0.96927    0.36613   1.00
C6       0.22652    1.03005    0.38215   1.00
C6       0.21666    0.99241    0.39046   1.00
H3       0.26811    1.05300    0.33965   1.00
H3       0.23799    0.93803    0.36506   1.00
H3       0.21480    1.05575    0.39577   1.00
H3       0.19576    0.98287    0.41189   1.00
C4       0.02085    0.75020    0.25003   1.00
C4       -0.02085   0.74980    0.24997   1.00
C3a      0.04254    0.78065    0.23163   1.00
C3       -0.04232   0.77306    0.27630   1.00
C3       0.04232    0.72033    0.26852   1.00
C3a      -0.04254   0.72597    0.22356   1.00
C2       0.10512    0.74999    0.25008   1.00
C2       -0.10512   0.74998    0.25008   1.00
C3       0.08405    0.78002    0.23189   1.00
C3       -0.08363   0.77320    0.27624   1.00
C3       0.08363    0.72021    0.26842   1.00
C3       -0.08405   0.72650    0.22399   1.00
C5       0.02228    0.81396    0.21091   1.00
H1       -0.02691   0.79154    0.29679   1.00
H1       0.10021    0.80312    0.21769   1.00
H1       -0.09901   0.79162    0.29676   1.00
H1       0.09901    0.69664    0.28274   1.00
H1       -0.10021   0.70848    0.20372   1.00
C5       -0.02228   0.70006    0.19409   1.00
H1       0.02691    0.69672    0.28280   1.00
H2       -0.04256   0.69308    0.16980   1.00
H2       0.00269    0.71576    0.18068   1.00
H2       0.04256    0.82767    0.18967   1.00
H2       -0.00269   0.80281    0.19353   1.00
N1       -0.00857   0.66395    0.21232   1.00
C6       -0.03073   0.63556    0.22725   1.00
C6       0.02846    0.65256    0.21620   1.00
C6       -0.00759   0.60590    0.24133   1.00
C6       0.03005    0.61670    0.23430   1.00
H3       -0.06197   0.63638    0.22825   1.00
H3       0.05300    0.66941    0.20676   1.00
H3       -0.01713   0.57934    0.25515   1.00
H3       0.05575    0.60028    0.24158   1.00
N1       0.00857    0.84327    0.23879   1.00
C6       -0.02846   0.85305    0.24580   1.00
C6       0.03073    0.86613    0.26129   1.00
C6       -0.03005   0.88215    0.27348   1.00
C6       0.00759    0.89046    0.28334   1.00
H3       -0.05300   0.83965    0.23189   1.00
H3       0.06197    0.86506    0.26201   1.00
H3       -0.05575   0.89577    0.28520   1.00
H3       0.01713    0.91189    0.30424   1.00
C4       0.47915    0.75020    0.24997   1.00
C4       0.52085    0.74980    0.25003   1.00
C3a      0.45746    0.78065    0.26837   1.00
C3       0.54232    0.77306    0.22370   1.00
C3       0.45768    0.72033    0.23148   1.00
C3a      0.54254    0.72597    0.27644   1.00
C2       0.39488    0.74999    0.24992   1.00
C2       0.60512    0.74998    0.24992   1.00
C3       0.41595    0.78002    0.26811   1.00
C3       0.58363    0.77320    0.22376   1.00
C3       0.41637    0.72021    0.23158   1.00
C3       0.58405    0.72650    0.27601   1.00
C5       0.47772    0.81396    0.28909   1.00
H1       0.52691    0.79154    0.20321   1.00
H1       0.39979    0.80312    0.28231   1.00
H1       0.59901    0.79162    0.20324   1.00
H1       0.40099    0.69664    0.21726   1.00
H1       0.60021    0.70848    0.29628   1.00
C5       0.52228    0.70006    0.30591   1.00
H1       0.47309    0.69672    0.21720   1.00
H2       0.54256    0.69308    0.33020   1.00
H2       0.49731    0.71576    0.31932   1.00
H2       0.45744    0.82767    0.31033   1.00
H2       0.50269    0.80281    0.30647   1.00
N1       0.50857    0.66395    0.28768   1.00
C6       0.53073    0.63556    0.27275   1.00
C6       0.47154    0.65256    0.28380   1.00
C6       0.50759    0.60590    0.25867   1.00
C6       0.46995    0.61670    0.26570   1.00
H3       0.56197    0.63638    0.27175   1.00
H3       0.44700    0.66941    0.29324   1.00
H3       0.51713    0.57934    0.24485   1.00
H3       0.44425    0.60028    0.25842   1.00
N1       0.49143    0.84327    0.26121   1.00
C6       0.52846    0.85305    0.25420   1.00
C6       0.46927    0.86613    0.23871   1.00
C6       0.53005    0.88215    0.22652   1.00
C6       0.49241    0.89046    0.21666   1.00
H3       0.55300    0.83965    0.26811   1.00
H3       0.43803    0.86506    0.23799   1.00
H3       0.55575    0.89577    0.21480   1.00
H3       0.48287    0.91189    0.19576   1.00
C4       0.25003    0.52085    0.25020   1.00
C4       0.24997    0.47915    0.24980   1.00
C3a      0.23163    0.54254    0.28065   1.00
C3       0.27630    0.45768    0.27306   1.00
C3       0.26852    0.54232    0.22033   1.00
C3a      0.22356    0.45746    0.22597   1.00
C2       0.25008    0.60512    0.24999   1.00
C2       0.25008    0.39488    0.24998   1.00
C3       0.23189    0.58405    0.28002   1.00
C3       0.27624    0.41637    0.27320   1.00
C3       0.26842    0.58363    0.22021   1.00
C3       0.22399    0.41595    0.22650   1.00
C5       0.21091    0.52228    0.31396   1.00
H1       0.29679    0.47309    0.29154   1.00
H1       0.21769    0.60021    0.30312   1.00
H1       0.29676    0.40099    0.29162   1.00
H1       0.28274    0.59901    0.19664   1.00
H1       0.20372    0.39979    0.20848   1.00
C5       0.19409    0.47772    0.20006   1.00
H1       0.28280    0.52691    0.19672   1.00
H2       0.16980    0.45744    0.19308   1.00
H2       0.18068    0.50269    0.21576   1.00
H2       0.18967    0.54256    0.32767   1.00
H2       0.19353    0.49731    0.30281   1.00
N1       0.21232    0.49143    0.16395   1.00
C6       0.22725    0.46927    0.13556   1.00
C6       0.21620    0.52846    0.15256   1.00
C6       0.24133    0.49241    0.10590   1.00
C6       0.23430    0.53005    0.11670   1.00
H3       0.22825    0.43803    0.13638   1.00
H3       0.20676    0.55300    0.16941   1.00
H3       0.25515    0.48287    0.07934   1.00
H3       0.24158    0.55575    0.10028   1.00
N1       0.23879    0.50857    0.34327   1.00
C6       0.24580    0.47154    0.35305   1.00
C6       0.26129    0.53073    0.36613   1.00
C6       0.27348    0.46995    0.38215   1.00
C6       0.28334    0.50759    0.39046   1.00
H3       0.23189    0.44700    0.33965   1.00
H3       0.26201    0.56197    0.36506   1.00
H3       0.28520    0.44425    0.39577   1.00
H3       0.30424    0.51713    0.41189   1.00
C4       0.25020    0.75003    0.02085   1.00
C4       0.24980    0.74997    -0.02085   1.00
C3a      0.28065    0.73163    0.04254   1.00
C3       0.27306    0.77630    -0.04232   1.00
C3       0.22033    0.76852    0.04232   1.00
C3a      0.22597    0.72356    -0.04254   1.00
C2       0.24999    0.75008    0.10512   1.00
C2       0.24998    0.75008    -0.10512   1.00
C3       0.28002    0.73189    0.08405   1.00
C3       0.27320    0.77624    -0.08363   1.00
C3       0.22021    0.76842    0.08363   1.00
C3       0.22650    0.72399    -0.08405   1.00
C5       0.31396    0.71091    0.02228   1.00
H1       0.29154    0.79679    -0.02691   1.00
H1       0.30312    0.71769    0.10021   1.00
H1       0.29162    0.79676    -0.09901   1.00
H1       0.19664    0.78274    0.09901   1.00
H1       0.20848    0.70372    -0.10021   1.00
C5       0.20006    0.69409    -0.02228   1.00
H1       0.19672    0.78280    0.02691   1.00
H2       0.19308    0.66980    -0.04256   1.00
H2       0.21576    0.68068    0.00269   1.00
H2       0.32767    0.68967    0.04256   1.00
H2       0.30281    0.69353    -0.00269   1.00
N1       0.16395    0.71232    -0.00857   1.00
C6       0.13556    0.72725    -0.03073   1.00
C6       0.15256    0.71620    0.02846   1.00
C6       0.10590    0.74133    -0.00759   1.00
C6       0.11670    0.73430    0.03005   1.00
H3       0.13638    0.72825    -0.06197   1.00
H3       0.16941    0.70676    0.05300   1.00
H3       0.07934    0.75515    -0.01713   1.00
H3       0.10028    0.74158    0.05575   1.00
N1       0.34327    0.73879    0.00857   1.00
C6       0.35305    0.74580    -0.02846   1.00
C6       0.36613    0.76129    0.03073   1.00
C6       0.38215    0.77348    -0.03005   1.00
C6       0.39046    0.78334    0.00759   1.00
H3       0.33965    0.73189    -0.05300   1.00
H3       0.36506    0.76201    0.06197   1.00
H3       0.39577    0.78520    -0.05575   1.00
H3       0.41189    0.80424    0.01713   1.00
C4       0.75020    0.24997    0.47915   1.00
C4       0.74980    0.25003    0.52085   1.00
C3a      0.78065    0.26837    0.45746   1.00
C3       0.77306    0.22370    0.54232   1.00
C3       0.72033    0.23148    0.45768   1.00
C3a      0.72597    0.27644    0.54254   1.00
C2       0.74999    0.24992    0.39488   1.00
C2       0.74998    0.24992    0.60512   1.00
C3       0.78002    0.26811    0.41595   1.00
C3       0.77320    0.22376    0.58363   1.00
C3       0.72021    0.23158    0.41637   1.00
C3       0.72650    0.27601    0.58405   1.00
C5       0.81396    0.28909    0.47772   1.00
H1       0.79154    0.20321    0.52691   1.00
H1       0.80312    0.28231    0.39979   1.00
H1       0.79162    0.20324    0.59901   1.00
H1       0.69664    0.21726    0.40099   1.00
H1       0.70848    0.29628    0.60021   1.00
C5       0.70006    0.30591    0.52228   1.00
H1       0.69672    0.21720    0.47309   1.00
H2       0.69308    0.33020    0.54256   1.00
H2       0.71576    0.31932    0.49731   1.00
H2       0.82767    0.31033    0.45744   1.00
H2       0.80281    0.30647    0.50269   1.00
N1       0.66395    0.28768    0.50857   1.00
C6       0.63556    0.27275    0.53073   1.00
C6       0.65256    0.28380    0.47154   1.00
C6       0.60590    0.25867    0.50759   1.00
C6       0.61670    0.26570    0.46995   1.00
H3       0.63638    0.27175    0.56197   1.00
H3       0.66941    0.29324    0.44700   1.00
H3       0.57934    0.24485    0.51713   1.00
H3       0.60028    0.25842    0.44425   1.00
N1       0.84327    0.26121    0.49143   1.00
C6       0.85305    0.25420    0.52846   1.00
C6       0.86613    0.23871    0.46927   1.00
C6       0.88215    0.22652    0.53005   1.00
C6       0.89046    0.21666    0.49241   1.00
H3       0.83965    0.26811    0.55300   1.00
H3       0.86506    0.23799    0.43803   1.00
H3       0.89577    0.21480    0.55575   1.00
H3       0.91189    0.19576    0.48287   1.00
C4       0.74997    0.47915    0.25020   1.00
C4       0.75003    0.52085    0.24980   1.00
C3a      0.76837    0.45746    0.28065   1.00
C3       0.72370    0.54232    0.27306   1.00
C3       0.73148    0.45768    0.22033   1.00
C3a      0.77644    0.54254    0.22597   1.00
C2       0.74992    0.39488    0.24999   1.00
C2       0.74992    0.60512    0.24998   1.00
C3       0.76811    0.41595    0.28002   1.00
C3       0.72376    0.58363    0.27320   1.00
C3       0.73158    0.41637    0.22021   1.00
C3       0.77601    0.58405    0.22650   1.00
C5       0.78909    0.47772    0.31396   1.00
H1       0.70321    0.52691    0.29154   1.00
H1       0.78231    0.39979    0.30312   1.00
H1       0.70324    0.59901    0.29162   1.00
H1       0.71726    0.40099    0.19664   1.00
H1       0.79628    0.60021    0.20848   1.00
C5       0.80591    0.52228    0.20006   1.00
H1       0.71720    0.47309    0.19672   1.00
H2       0.83020    0.54256    0.19308   1.00
H2       0.81932    0.49731    0.21576   1.00
H2       0.81033    0.45744    0.32767   1.00
H2       0.80647    0.50269    0.30281   1.00
N1       0.78768    0.50857    0.16395   1.00
C6       0.77275    0.53073    0.13556   1.00
C6       0.78380    0.47154    0.15256   1.00
C6       0.75867    0.50759    0.10590   1.00
C6       0.76570    0.46995    0.11670   1.00
H3       0.77175    0.56197    0.13638   1.00
H3       0.79324    0.44700    0.16941   1.00
H3       0.74485    0.51713    0.07934   1.00
H3       0.75842    0.44425    0.10028   1.00
N1       0.76121    0.49143    0.34327   1.00
C6       0.75420    0.52846    0.35305   1.00
C6       0.73871    0.46927    0.36613   1.00
C6       0.72652    0.53005    0.38215   1.00
C6       0.71666    0.49241    0.39046   1.00
H3       0.76811    0.55300    0.33965   1.00
H3       0.73799    0.43803    0.36506   1.00
H3       0.71480    0.55575    0.39577   1.00
H3       0.69576    0.48287    0.41189   1.00
C4       0.52085    0.25020    0.25003   1.00
C4       0.47915    0.24980    0.24997   1.00
C3a      0.54254    0.28065    0.23163   1.00
C3       0.45768    0.27306    0.27630   1.00
C3       0.54232    0.22033    0.26852   1.00
C3a      0.45746    0.22597    0.22356   1.00
C2       0.60512    0.24999    0.25008   1.00
C2       0.39488    0.24998    0.25008   1.00
C3       0.58405    0.28002    0.23189   1.00
C3       0.41637    0.27320    0.27624   1.00
C3       0.58363    0.22021    0.26842   1.00
C3       0.41595    0.22650    0.22399   1.00
C5       0.52228    0.31396    0.21091   1.00
H1       0.47309    0.29154    0.29679   1.00
H1       0.60021    0.30312    0.21769   1.00
H1       0.40099    0.29162    0.29676   1.00
H1       0.59901    0.19664    0.28274   1.00
H1       0.39979    0.20848    0.20372   1.00
C5       0.47772    0.20006    0.19409   1.00
H1       0.52691    0.19672    0.28280   1.00
H2       0.45744    0.19308    0.16980   1.00
H2       0.50269    0.21576    0.18068   1.00
H2       0.54256    0.32767    0.18967   1.00
H2       0.49731    0.30281    0.19353   1.00
N1       0.49143    0.16395    0.21232   1.00
C6       0.46927    0.13556    0.22725   1.00
C6       0.52846    0.15256    0.21620   1.00
C6       0.49241    0.10590    0.24133   1.00
C6       0.53005    0.11670    0.23430   1.00
H3       0.43803    0.13638    0.22825   1.00
H3       0.55300    0.16941    0.20676   1.00
H3       0.48287    0.07934    0.25515   1.00
H3       0.55575    0.10028    0.24158   1.00
N1       0.50857    0.34327    0.23879   1.00
C6       0.47154    0.35305    0.24580   1.00
C6       0.53073    0.36613    0.26129   1.00
C6       0.46995    0.38215    0.27348   1.00
C6       0.50759    0.39046    0.28334   1.00
H3       0.44700    0.33965    0.23189   1.00
H3       0.56197    0.36506    0.26201   1.00
H3       0.44425    0.39577    0.28520   1.00
H3       0.51713    0.41189    0.30424   1.00
C4       0.97915    0.25020    0.24997   1.00
C4       1.02085    0.24980    0.25003   1.00
C3a      0.95746    0.28065    0.26837   1.00
C3       1.04232    0.27306    0.22370   1.00
C3       0.95768    0.22033    0.23148   1.00
C3a      1.04254    0.22597    0.27644   1.00
C2       0.89488    0.24999    0.24992   1.00
C2       1.10512    0.24998    0.24992   1.00
C3       0.91595    0.28002    0.26811   1.00
C3       1.08363    0.27320    0.22376   1.00
C3       0.91637    0.22021    0.23158   1.00
C3       1.08405    0.22650    0.27601   1.00
C5       0.97772    0.31396    0.28909   1.00
H1       1.02691    0.29154    0.20321   1.00
H1       0.89979    0.30312    0.28231   1.00
H1       1.09901    0.29162    0.20324   1.00
H1       0.90099    0.19664    0.21726   1.00
H1       1.10021    0.20848    0.29628   1.00
C5       1.02228    0.20006    0.30591   1.00
H1       0.97309    0.19672    0.21720   1.00
H2       1.04256    0.19308    0.33020   1.00
H2       0.99731    0.21576    0.31932   1.00
H2       0.95744    0.32767    0.31033   1.00
H2       1.00269    0.30281    0.30647   1.00
N1       1.00857    0.16395    0.28768   1.00
C6       1.03073    0.13556    0.27275   1.00
C6       0.97154    0.15256    0.28380   1.00
C6       1.00759    0.10590    0.25867   1.00
C6       0.96995    0.11670    0.26570   1.00
H3       1.06197    0.13638    0.27175   1.00
H3       0.94700    0.16941    0.29324   1.00
H3       1.01713    0.07934    0.24485   1.00
H3       0.94425    0.10028    0.25842   1.00
N1       0.99143    0.34327    0.26121   1.00
C6       1.02846    0.35305    0.25420   1.00
C6       0.96927    0.36613    0.23871   1.00
C6       1.03005    0.38215    0.22652   1.00
C6       0.99241    0.39046    0.21666   1.00
H3       1.05300    0.33965    0.26811   1.00
H3       0.93803    0.36506    0.23799   1.00
H3       1.05575    0.39577    0.21480   1.00
H3       0.98287    0.41189    0.19576   1.00
C4       0.75003    0.02085    0.25020   1.00
C4       0.74997    -0.02085   0.24980   1.00
C3a      0.73163    0.04254    0.28065   1.00
C3       0.77630    -0.04232   0.27306   1.00
C3       0.76852    0.04232    0.22033   1.00
C3a      0.72356    -0.04254   0.22597   1.00
C2       0.75008    0.10512    0.24999   1.00
C2       0.75008    -0.10512   0.24998   1.00
C3       0.73189    0.08405    0.28002   1.00
C3       0.77624    -0.08363   0.27320   1.00
C3       0.76842    0.08363    0.22021   1.00
C3       0.72399    -0.08405   0.22650   1.00
C5       0.71091    0.02228    0.31396   1.00
H1       0.79679    -0.02691   0.29154   1.00
H1       0.71769    0.10021    0.30312   1.00
H1       0.79676    -0.09901   0.29162   1.00
H1       0.78274    0.09901    0.19664   1.00
H1       0.70372    -0.10021   0.20848   1.00
C5       0.69409    -0.02228   0.20006   1.00
H1       0.78280    0.02691    0.19672   1.00
H2       0.66980    -0.04256   0.19308   1.00
H2       0.68068    0.00269    0.21576   1.00
H2       0.68967    0.04256    0.32767   1.00
H2       0.69353    -0.00269   0.30281   1.00
N1       0.71232    -0.00857   0.16395   1.00
C6       0.72725    -0.03073   0.13556   1.00
C6       0.71620    0.02846    0.15256   1.00
C6       0.74133    -0.00759   0.10590   1.00
C6       0.73430    0.03005    0.11670   1.00
H3       0.72825    -0.06197   0.13638   1.00
H3       0.70676    0.05300    0.16941   1.00
H3       0.75515    -0.01713   0.07934   1.00
H3       0.74158    0.05575    0.10028   1.00
N1       0.73879    0.00857    0.34327   1.00
C6       0.74580    -0.02846   0.35305   1.00
C6       0.76129    0.03073    0.36613   1.00
C6       0.77348    -0.03005   0.38215   1.00
C6       0.78334    0.00759    0.39046   1.00
H3       0.73189    -0.05300   0.33965   1.00
H3       0.76201    0.06197    0.36506   1.00
H3       0.78520    -0.05575   0.39577   1.00
H3       0.80424    0.01713    0.41189   1.00
C4       0.75020    0.25003    0.02085   1.00
C4       0.74980    0.24997    -0.02085   1.00
C3a      0.78065    0.23163    0.04254   1.00
C3       0.77306    0.27630    -0.04232   1.00
C3       0.72033    0.26852    0.04232   1.00
C3a      0.72597    0.22356    -0.04254   1.00
C2       0.74999    0.25008    0.10512   1.00
C2       0.74998    0.25008    -0.10512   1.00
C3       0.78002    0.23189    0.08405   1.00
C3       0.77320    0.27624    -0.08363   1.00
C3       0.72021    0.26842    0.08363   1.00
C3       0.72650    0.22399    -0.08405   1.00
C5       0.81396    0.21091    0.02228   1.00
H1       0.79154    0.29679    -0.02691   1.00
H1       0.80312    0.21769    0.10021   1.00
H1       0.79162    0.29676    -0.09901   1.00
H1       0.69664    0.28274    0.09901   1.00
H1       0.70848    0.20372    -0.10021   1.00
C5       0.70006    0.19409    -0.02228   1.00
H1       0.69672    0.28280    0.02691   1.00
H2       0.69308    0.16980    -0.04256   1.00
H2       0.71576    0.18068    0.00269   1.00
H2       0.82767    0.18967    0.04256   1.00
H2       0.80281    0.19353    -0.00269   1.00
N1       0.66395    0.21232    -0.00857   1.00
C6       0.63556    0.22725    -0.03073   1.00
C6       0.65256    0.21620    0.02846   1.00
C6       0.60590    0.24133    -0.00759   1.00
C6       0.61670    0.23430    0.03005   1.00
H3       0.63638    0.22825    -0.06197   1.00
H3       0.66941    0.20676    0.05300   1.00
H3       0.57934    0.25515    -0.01713   1.00
H3       0.60028    0.24158    0.05575   1.00
N1       0.84327    0.23879    0.00857   1.00
C6       0.85305    0.24580    -0.02846   1.00
C6       0.86613    0.26129    0.03073   1.00
C6       0.88215    0.27348    -0.03005   1.00
C6       0.89046    0.28334    0.00759   1.00
H3       0.83965    0.23189    -0.05300   1.00
H3       0.86506    0.26201    0.06197   1.00
H3       0.89577    0.28520    -0.05575   1.00
H3       0.91189    0.30424    0.01713   1.00
