data_IRMOF10_SG202_Ligand8_label_i.

_audit_creation_method             'generated by an auxiliary program of Tobunporous'

_symmetry_space_group_name_H-M     'P 1'
_symmetry_Int_Tables_number        1
_symmetry_cell_setting             triclinic

_cell_length_a                    34.2800
_cell_length_b                    34.2800
_cell_length_c                    34.2800
_cell_angle_alpha                 90.0000
_cell_angle_beta                  90.0000
_cell_angle_gamma                 90.0000

loop_
_atom_site_label
_atom_site_fract_x
_atom_site_fract_y
_atom_site_fract_z
_atom_site_occupancy
O1       0.75000    0.75000    0.75000   1.00
Zn1      0.71720    0.78280    0.78280   1.00
Zn1      0.78280    0.71720    0.78280   1.00
Zn1      0.78280    0.78280    0.71720   1.00
Zn1      0.71720    0.71720    0.71720   1.00
O2       0.72650    0.77350    0.83820   1.00
O2       0.72650    0.83820    0.77350   1.00
O2       0.66180    0.77350    0.77350   1.00
O2       0.77350    0.72650    0.83820   1.00
O2       0.83820    0.72650    0.77350   1.00
O2       0.77350    0.66180    0.77350   1.00
O2       0.77350    0.83820    0.72650   1.00
O2       0.83820    0.77350    0.72650   1.00
O2       0.77350    0.77350    0.66180   1.00
O2       0.66180    0.72650    0.72650   1.00
O2       0.72650    0.66180    0.72650   1.00
O2       0.72650    0.72650    0.66180   1.00
C1       0.75000    0.75000    0.85520   1.00
C1       0.75000    0.85520    0.75000   1.00
C1       0.64480    0.75000    0.75000   1.00
C1       0.85520    0.75000    0.75000   1.00
C1       0.75000    0.64480    0.75000   1.00
C1       0.75000    0.75000    0.64480   1.00
O1       0.25000    0.25000    0.75000   1.00
Zn1      0.21720    0.28280    0.78280   1.00
Zn1      0.28280    0.21720    0.78280   1.00
Zn1      0.28280    0.28280    0.71720   1.00
Zn1      0.21720    0.21720    0.71720   1.00
O2       0.22650    0.27350    0.83820   1.00
O2       0.22650    0.33820    0.77350   1.00
O2       0.16180    0.27350    0.77350   1.00
O2       0.27350    0.22650    0.83820   1.00
O2       0.33820    0.22650    0.77350   1.00
O2       0.27350    0.16180    0.77350   1.00
O2       0.27350    0.33820    0.72650   1.00
O2       0.33820    0.27350    0.72650   1.00
O2       0.27350    0.27350    0.66180   1.00
O2       0.16180    0.22650    0.72650   1.00
O2       0.22650    0.16180    0.72650   1.00
O2       0.22650    0.22650    0.66180   1.00
C1       0.25000    0.25000    0.85520   1.00
C1       0.25000    0.35520    0.75000   1.00
C1       0.14480    0.25000    0.75000   1.00
C1       0.35520    0.25000    0.75000   1.00
C1       0.25000    0.14480    0.75000   1.00
C1       0.25000    0.25000    0.64480   1.00
O1       0.25000    0.75000    0.25000   1.00
Zn1      0.21720    0.78280    0.28280   1.00
Zn1      0.28280    0.71720    0.28280   1.00
Zn1      0.28280    0.78280    0.21720   1.00
Zn1      0.21720    0.71720    0.21720   1.00
O2       0.22650    0.77350    0.33820   1.00
O2       0.22650    0.83820    0.27350   1.00
O2       0.16180    0.77350    0.27350   1.00
O2       0.27350    0.72650    0.33820   1.00
O2       0.33820    0.72650    0.27350   1.00
O2       0.27350    0.66180    0.27350   1.00
O2       0.27350    0.83820    0.22650   1.00
O2       0.33820    0.77350    0.22650   1.00
O2       0.27350    0.77350    0.16180   1.00
O2       0.16180    0.72650    0.22650   1.00
O2       0.22650    0.66180    0.22650   1.00
O2       0.22650    0.72650    0.16180   1.00
C1       0.25000    0.75000    0.35520   1.00
C1       0.25000    0.85520    0.25000   1.00
C1       0.14480    0.75000    0.25000   1.00
C1       0.35520    0.75000    0.25000   1.00
C1       0.25000    0.64480    0.25000   1.00
C1       0.25000    0.75000    0.14480   1.00
O1       0.75000    0.25000    0.25000   1.00
Zn1      0.71720    0.28280    0.28280   1.00
Zn1      0.78280    0.21720    0.28280   1.00
Zn1      0.78280    0.28280    0.21720   1.00
Zn1      0.71720    0.21720    0.21720   1.00
O2       0.72650    0.27350    0.33820   1.00
O2       0.72650    0.33820    0.27350   1.00
O2       0.66180    0.27350    0.27350   1.00
O2       0.77350    0.22650    0.33820   1.00
O2       0.83820    0.22650    0.27350   1.00
O2       0.77350    0.16180    0.27350   1.00
O2       0.77350    0.33820    0.22650   1.00
O2       0.83820    0.27350    0.22650   1.00
O2       0.77350    0.27350    0.16180   1.00
O2       0.66180    0.22650    0.22650   1.00
O2       0.72650    0.16180    0.22650   1.00
O2       0.72650    0.22650    0.16180   1.00
C1       0.75000    0.25000    0.35520   1.00
C1       0.75000    0.35520    0.25000   1.00
C1       0.64480    0.25000    0.25000   1.00
C1       0.85520    0.25000    0.25000   1.00
C1       0.75000    0.14480    0.25000   1.00
C1       0.75000    0.25000    0.14480   1.00
O1       0.25000    0.25000    0.25000   1.00
Zn1      0.28280    0.21720    0.21720   1.00
Zn1      0.21720    0.28280    0.21720   1.00
Zn1      0.21720    0.21720    0.28280   1.00
Zn1      0.28280    0.28280    0.28280   1.00
O2       0.27350    0.22650    0.16180   1.00
O2       0.27350    0.16180    0.22650   1.00
O2       0.33820    0.22650    0.22650   1.00
O2       0.22650    0.27350    0.16180   1.00
O2       0.16180    0.27350    0.22650   1.00
O2       0.22650    0.33820    0.22650   1.00
O2       0.22650    0.16180    0.27350   1.00
O2       0.16180    0.22650    0.27350   1.00
O2       0.22650    0.22650    0.33820   1.00
O2       0.33820    0.27350    0.27350   1.00
O2       0.27350    0.33820    0.27350   1.00
O2       0.27350    0.27350    0.33820   1.00
C1       0.25000    0.25000    0.14480   1.00
C1       0.25000    0.14480    0.25000   1.00
C1       0.35520    0.25000    0.25000   1.00
C1       0.14480    0.25000    0.25000   1.00
C1       0.25000    0.35520    0.25000   1.00
C1       0.25000    0.25000    0.35520   1.00
O1       0.75000    0.75000    0.25000   1.00
Zn1      0.78280    0.71720    0.21720   1.00
Zn1      0.71720    0.78280    0.21720   1.00
Zn1      0.71720    0.71720    0.28280   1.00
Zn1      0.78280    0.78280    0.28280   1.00
O2       0.77350    0.72650    0.16180   1.00
O2       0.77350    0.66180    0.22650   1.00
O2       0.83820    0.72650    0.22650   1.00
O2       0.72650    0.77350    0.16180   1.00
O2       0.66180    0.77350    0.22650   1.00
O2       0.72650    0.83820    0.22650   1.00
O2       0.72650    0.66180    0.27350   1.00
O2       0.66180    0.72650    0.27350   1.00
O2       0.72650    0.72650    0.33820   1.00
O2       0.83820    0.77350    0.27350   1.00
O2       0.77350    0.83820    0.27350   1.00
O2       0.77350    0.77350    0.33820   1.00
C1       0.75000    0.75000    0.14480   1.00
C1       0.75000    0.64480    0.25000   1.00
C1       0.85520    0.75000    0.25000   1.00
C1       0.64480    0.75000    0.25000   1.00
C1       0.75000    0.85520    0.25000   1.00
C1       0.75000    0.75000    0.35520   1.00
O1       0.75000    0.25000    0.75000   1.00
Zn1      0.78280    0.21720    0.71720   1.00
Zn1      0.71720    0.28280    0.71720   1.00
Zn1      0.71720    0.21720    0.78280   1.00
Zn1      0.78280    0.28280    0.78280   1.00
O2       0.77350    0.22650    0.66180   1.00
O2       0.77350    0.16180    0.72650   1.00
O2       0.83820    0.22650    0.72650   1.00
O2       0.72650    0.27350    0.66180   1.00
O2       0.66180    0.27350    0.72650   1.00
O2       0.72650    0.33820    0.72650   1.00
O2       0.72650    0.16180    0.77350   1.00
O2       0.66180    0.22650    0.77350   1.00
O2       0.72650    0.22650    0.83820   1.00
O2       0.83820    0.27350    0.77350   1.00
O2       0.77350    0.33820    0.77350   1.00
O2       0.77350    0.27350    0.83820   1.00
C1       0.75000    0.25000    0.64480   1.00
C1       0.75000    0.14480    0.75000   1.00
C1       0.85520    0.25000    0.75000   1.00
C1       0.64480    0.25000    0.75000   1.00
C1       0.75000    0.35520    0.75000   1.00
C1       0.75000    0.25000    0.85520   1.00
O1       0.25000    0.75000    0.75000   1.00
Zn1      0.28280    0.71720    0.71720   1.00
Zn1      0.21720    0.78280    0.71720   1.00
Zn1      0.21720    0.71720    0.78280   1.00
Zn1      0.28280    0.78280    0.78280   1.00
O2       0.27350    0.72650    0.66180   1.00
O2       0.27350    0.66180    0.72650   1.00
O2       0.33820    0.72650    0.72650   1.00
O2       0.22650    0.77350    0.66180   1.00
O2       0.16180    0.77350    0.72650   1.00
O2       0.22650    0.83820    0.72650   1.00
O2       0.22650    0.66180    0.77350   1.00
O2       0.16180    0.72650    0.77350   1.00
O2       0.22650    0.72650    0.83820   1.00
O2       0.33820    0.77350    0.77350   1.00
O2       0.27350    0.83820    0.77350   1.00
O2       0.27350    0.77350    0.83820   1.00
C1       0.25000    0.75000    0.64480   1.00
C1       0.25000    0.64480    0.75000   1.00
C1       0.35520    0.75000    0.75000   1.00
C1       0.14480    0.75000    0.75000   1.00
C1       0.25000    0.85520    0.75000   1.00
C1       0.25000    0.75000    0.85520   1.00
C4       0.75010    0.75000    0.97915   1.00
C4       0.74990    0.75000    1.02085   1.00
C3       0.77423    0.77506    0.95708   1.00
C3       0.76958    0.72082    1.04225   1.00
C3       0.72562    0.72432    0.95816   1.00
C3a      0.73034    0.77968    1.04263   1.00
C2       0.74875    0.74916    0.89483   1.00
C2       0.75137    0.75054    1.10517   1.00
C3       0.77350    0.77460    0.91566   1.00
C3       0.77028    0.72115    1.08359   1.00
C3       0.72484    0.72404    0.91680   1.00
C3       0.73149    0.77955    1.08415   1.00
H1       0.79367    0.79505    0.97192   1.00
H1       0.78477    0.69777    1.02685   1.00
H1       0.79235    0.79427    0.89968   1.00
H1       0.78578    0.69830    1.09895   1.00
H1       0.70527    0.70431    0.90179   1.00
H1       0.71647    0.80207    1.10043   1.00
C5       0.70726    0.81146    1.02239   1.00
H1       0.70621    0.70508    0.97401   1.00
H2       0.69745    0.83401    1.04354   1.00
H2       0.72637    0.82662    1.00103   1.00
N1       0.67294    0.79515    1.00292   1.00
C6       0.64372    0.77528    1.02012   1.00
C6       0.66462    0.79758    0.96460   1.00
C6       0.61657    0.76457    0.99243   1.00
C6       0.62987    0.77874    0.95711   1.00
H3       0.64226    0.76869    1.05099   1.00
H3       0.68291    0.81178    0.94309   1.00
H3       0.59002    0.74828    0.99741   1.00
H3       0.61585    0.77566    0.92903   1.00
C4       0.75000    0.97915    0.75010   1.00
C4       0.75000    1.02085    0.74990   1.00
C3       0.77506    0.95708    0.77423   1.00
C3       0.72082    1.04225    0.76958   1.00
C3       0.72432    0.95816    0.72562   1.00
C3a      0.77968    1.04263    0.73034   1.00
C2       0.74916    0.89483    0.74875   1.00
C2       0.75054    1.10517    0.75137   1.00
C3       0.77460    0.91566    0.77350   1.00
C3       0.72115    1.08359    0.77028   1.00
C3       0.72404    0.91680    0.72484   1.00
C3       0.77955    1.08415    0.73149   1.00
H1       0.79505    0.97192    0.79367   1.00
H1       0.69777    1.02685    0.78477   1.00
H1       0.79427    0.89968    0.79235   1.00
H1       0.69830    1.09895    0.78578   1.00
H1       0.70431    0.90179    0.70527   1.00
H1       0.80207    1.10043    0.71647   1.00
C5       0.81146    1.02239    0.70726   1.00
H1       0.70508    0.97401    0.70621   1.00
H2       0.83401    1.04354    0.69745   1.00
H2       0.82662    1.00103    0.72637   1.00
N1       0.79515    1.00292    0.67294   1.00
C6       0.77528    1.02012    0.64372   1.00
C6       0.79758    0.96460    0.66462   1.00
C6       0.76457    0.99243    0.61657   1.00
C6       0.77874    0.95711    0.62987   1.00
H3       0.76869    1.05099    0.64226   1.00
H3       0.81178    0.94309    0.68291   1.00
H3       0.74828    0.99741    0.59002   1.00
H3       0.77566    0.92903    0.61585   1.00
C4       0.52085    0.75010    0.75000   1.00
C4       0.47915    0.74990    0.75000   1.00
C3       0.54292    0.77423    0.72494   1.00
C3       0.45775    0.76958    0.77918   1.00
C3       0.54184    0.72562    0.77568   1.00
C3a      0.45737    0.73034    0.72032   1.00
C2       0.60517    0.74875    0.75084   1.00
C2       0.39483    0.75137    0.74946   1.00
C3       0.58434    0.77350    0.72540   1.00
C3       0.41641    0.77028    0.77885   1.00
C3       0.58320    0.72484    0.77596   1.00
C3       0.41585    0.73149    0.72045   1.00
H1       0.52808    0.79367    0.70495   1.00
H1       0.47315    0.78477    0.80223   1.00
H1       0.60032    0.79235    0.70573   1.00
H1       0.40105    0.78578    0.80170   1.00
H1       0.59821    0.70527    0.79569   1.00
H1       0.39957    0.71647    0.69793   1.00
C5       0.47761    0.70726    0.68854   1.00
H1       0.52599    0.70621    0.79492   1.00
H2       0.45646    0.69745    0.66599   1.00
H2       0.49897    0.72637    0.67338   1.00
N1       0.49708    0.67294    0.70485   1.00
C6       0.47988    0.64372    0.72472   1.00
C6       0.53540    0.66462    0.70242   1.00
C6       0.50757    0.61657    0.73543   1.00
C6       0.54289    0.62987    0.72126   1.00
H3       0.44901    0.64226    0.73131   1.00
H3       0.55691    0.68291    0.68822   1.00
H3       0.50259    0.59002    0.75172   1.00
H3       0.57097    0.61585    0.72434   1.00
C4       0.97915    0.75010    0.75000   1.00
C4       1.02085    0.74990    0.75000   1.00
C3       0.95708    0.77423    0.77506   1.00
C3       1.04225    0.76958    0.72082   1.00
C3       0.95816    0.72562    0.72432   1.00
C3a      1.04263    0.73034    0.77968   1.00
C2       0.89483    0.74875    0.74916   1.00
C2       1.10517    0.75137    0.75054   1.00
C3       0.91566    0.77350    0.77460   1.00
C3       1.08359    0.77028    0.72115   1.00
C3       0.91680    0.72484    0.72404   1.00
C3       1.08415    0.73149    0.77955   1.00
H1       0.97192    0.79367    0.79505   1.00
H1       1.02685    0.78477    0.69777   1.00
H1       0.89968    0.79235    0.79427   1.00
H1       1.09895    0.78578    0.69830   1.00
H1       0.90179    0.70527    0.70431   1.00
H1       1.10043    0.71647    0.80207   1.00
C5       1.02239    0.70726    0.81146   1.00
H1       0.97401    0.70621    0.70508   1.00
H2       1.04354    0.69745    0.83401   1.00
H2       1.00103    0.72637    0.82662   1.00
N1       1.00292    0.67294    0.79515   1.00
C6       1.02012    0.64372    0.77528   1.00
C6       0.96460    0.66462    0.79758   1.00
C6       0.99243    0.61657    0.76457   1.00
C6       0.95711    0.62987    0.77874   1.00
H3       1.05099    0.64226    0.76869   1.00
H3       0.94309    0.68291    0.81178   1.00
H3       0.99741    0.59002    0.74828   1.00
H3       0.92903    0.61585    0.77566   1.00
C4       0.75000    0.52085    0.75010   1.00
C4       0.75000    0.47915    0.74990   1.00
C3       0.72494    0.54292    0.77423   1.00
C3       0.77918    0.45775    0.76958   1.00
C3       0.77568    0.54184    0.72562   1.00
C3a      0.72032    0.45737    0.73034   1.00
C2       0.75084    0.60517    0.74875   1.00
C2       0.74946    0.39483    0.75137   1.00
C3       0.72540    0.58434    0.77350   1.00
C3       0.77885    0.41641    0.77028   1.00
C3       0.77596    0.58320    0.72484   1.00
C3       0.72045    0.41585    0.73149   1.00
H1       0.70495    0.52808    0.79367   1.00
H1       0.80223    0.47315    0.78477   1.00
H1       0.70573    0.60032    0.79235   1.00
H1       0.80170    0.40105    0.78578   1.00
H1       0.79569    0.59821    0.70527   1.00
H1       0.69793    0.39957    0.71647   1.00
C5       0.68854    0.47761    0.70726   1.00
H1       0.79492    0.52599    0.70621   1.00
H2       0.66599    0.45646    0.69745   1.00
H2       0.67338    0.49897    0.72637   1.00
N1       0.70485    0.49708    0.67294   1.00
C6       0.72472    0.47988    0.64372   1.00
C6       0.70242    0.53540    0.66462   1.00
C6       0.73543    0.50757    0.61657   1.00
C6       0.72126    0.54289    0.62987   1.00
H3       0.73131    0.44901    0.64226   1.00
H3       0.68822    0.55691    0.68291   1.00
H3       0.75172    0.50259    0.59002   1.00
H3       0.72434    0.57097    0.61585   1.00
C4       0.75010    0.75000    0.52085   1.00
C4       0.74990    0.75000    0.47915   1.00
C3       0.77423    0.72494    0.54292   1.00
C3       0.76958    0.77918    0.45775   1.00
C3       0.72562    0.77568    0.54184   1.00
C3a      0.73034    0.72032    0.45737   1.00
C2       0.74875    0.75084    0.60517   1.00
C2       0.75137    0.74946    0.39483   1.00
C3       0.77350    0.72540    0.58434   1.00
C3       0.77028    0.77885    0.41641   1.00
C3       0.72484    0.77596    0.58320   1.00
C3       0.73149    0.72045    0.41585   1.00
H1       0.79367    0.70495    0.52808   1.00
H1       0.78477    0.80223    0.47315   1.00
H1       0.79235    0.70573    0.60032   1.00
H1       0.78578    0.80170    0.40105   1.00
H1       0.70527    0.79569    0.59821   1.00
H1       0.71647    0.69793    0.39957   1.00
C5       0.70726    0.68854    0.47761   1.00
H1       0.70621    0.79492    0.52599   1.00
H2       0.69745    0.66599    0.45646   1.00
H2       0.72637    0.67338    0.49897   1.00
N1       0.67294    0.70485    0.49708   1.00
C6       0.64372    0.72472    0.47988   1.00
C6       0.66462    0.70242    0.53540   1.00
C6       0.61657    0.73543    0.50757   1.00
C6       0.62987    0.72126    0.54289   1.00
H3       0.64226    0.73131    0.44901   1.00
H3       0.68291    0.68822    0.55691   1.00
H3       0.59002    0.75172    0.50259   1.00
H3       0.61585    0.72434    0.57097   1.00
C4       0.25010    0.25000    0.97915   1.00
C4       0.24990    0.25000    1.02085   1.00
C3       0.27423    0.27506    0.95708   1.00
C3       0.26958    0.22082    1.04225   1.00
C3       0.22562    0.22432    0.95816   1.00
C3a      0.23034    0.27968    1.04263   1.00
C2       0.24875    0.24916    0.89483   1.00
C2       0.25137    0.25054    1.10517   1.00
C3       0.27350    0.27460    0.91566   1.00
C3       0.27028    0.22115    1.08359   1.00
C3       0.22484    0.22404    0.91680   1.00
C3       0.23149    0.27955    1.08415   1.00
H1       0.29367    0.29505    0.97192   1.00
H1       0.28477    0.19777    1.02685   1.00
H1       0.29235    0.29427    0.89968   1.00
H1       0.28578    0.19830    1.09895   1.00
H1       0.20527    0.20431    0.90179   1.00
H1       0.21647    0.30207    1.10043   1.00
C5       0.20726    0.31146    1.02239   1.00
H1       0.20621    0.20508    0.97401   1.00
H2       0.19745    0.33401    1.04354   1.00
H2       0.22637    0.32662    1.00103   1.00
N1       0.17294    0.29515    1.00292   1.00
C6       0.14372    0.27528    1.02012   1.00
C6       0.16462    0.29758    0.96460   1.00
C6       0.11657    0.26457    0.99243   1.00
C6       0.12987    0.27874    0.95711   1.00
H3       0.14226    0.26869    1.05099   1.00
H3       0.18291    0.31178    0.94309   1.00
H3       0.09002    0.24828    0.99741   1.00
H3       0.11585    0.27566    0.92903   1.00
C4       0.25000    0.47915    0.75010   1.00
C4       0.25000    0.52085    0.74990   1.00
C3       0.27506    0.45708    0.77423   1.00
C3       0.22082    0.54225    0.76958   1.00
C3       0.22432    0.45816    0.72562   1.00
C3a      0.27968    0.54263    0.73034   1.00
C2       0.24916    0.39483    0.74875   1.00
C2       0.25054    0.60517    0.75137   1.00
C3       0.27460    0.41566    0.77350   1.00
C3       0.22115    0.58359    0.77028   1.00
C3       0.22404    0.41680    0.72484   1.00
C3       0.27955    0.58415    0.73149   1.00
H1       0.29505    0.47192    0.79367   1.00
H1       0.19777    0.52685    0.78477   1.00
H1       0.29427    0.39968    0.79235   1.00
H1       0.19830    0.59895    0.78578   1.00
H1       0.20431    0.40179    0.70527   1.00
H1       0.30207    0.60043    0.71647   1.00
C5       0.31146    0.52239    0.70726   1.00
H1       0.20508    0.47401    0.70621   1.00
H2       0.33401    0.54354    0.69745   1.00
H2       0.32662    0.50103    0.72637   1.00
N1       0.29515    0.50292    0.67294   1.00
C6       0.27528    0.52012    0.64372   1.00
C6       0.29758    0.46460    0.66462   1.00
C6       0.26457    0.49243    0.61657   1.00
C6       0.27874    0.45711    0.62987   1.00
H3       0.26869    0.55099    0.64226   1.00
H3       0.31178    0.44309    0.68291   1.00
H3       0.24828    0.49741    0.59002   1.00
H3       0.27566    0.42903    0.61585   1.00
C4       0.02085    0.25010    0.75000   1.00
C4       -0.02085   0.24990    0.75000   1.00
C3       0.04292    0.27423    0.72494   1.00
C3       -0.04225   0.26958    0.77918   1.00
C3       0.04184    0.22562    0.77568   1.00
C3a      -0.04263   0.23034    0.72032   1.00
C2       0.10517    0.24875    0.75084   1.00
C2       -0.10517   0.25137    0.74946   1.00
C3       0.08434    0.27350    0.72540   1.00
C3       -0.08359   0.27028    0.77885   1.00
C3       0.08320    0.22484    0.77596   1.00
C3       -0.08415   0.23149    0.72045   1.00
H1       0.02808    0.29367    0.70495   1.00
H1       -0.02685   0.28477    0.80223   1.00
H1       0.10032    0.29235    0.70573   1.00
H1       -0.09895   0.28578    0.80170   1.00
H1       0.09821    0.20527    0.79569   1.00
H1       -0.10043   0.21647    0.69793   1.00
C5       -0.02239   0.20726    0.68854   1.00
H1       0.02599    0.20621    0.79492   1.00
H2       -0.04354   0.19745    0.66599   1.00
H2       -0.00103   0.22637    0.67338   1.00
N1       -0.00292   0.17294    0.70485   1.00
C6       -0.02012   0.14372    0.72472   1.00
C6       0.03540    0.16462    0.70242   1.00
C6       0.00757    0.11657    0.73543   1.00
C6       0.04289    0.12987    0.72126   1.00
H3       -0.05099   0.14226    0.73131   1.00
H3       0.05691    0.18291    0.68822   1.00
H3       0.00259    0.09002    0.75172   1.00
H3       0.07097    0.11585    0.72434   1.00
C4       0.47915    0.25010    0.75000   1.00
C4       0.52085    0.24990    0.75000   1.00
C3       0.45708    0.27423    0.77506   1.00
C3       0.54225    0.26958    0.72082   1.00
C3       0.45816    0.22562    0.72432   1.00
C3a      0.54263    0.23034    0.77968   1.00
C2       0.39483    0.24875    0.74916   1.00
C2       0.60517    0.25137    0.75054   1.00
C3       0.41566    0.27350    0.77460   1.00
C3       0.58359    0.27028    0.72115   1.00
C3       0.41680    0.22484    0.72404   1.00
C3       0.58415    0.23149    0.77955   1.00
H1       0.47192    0.29367    0.79505   1.00
H1       0.52685    0.28477    0.69777   1.00
H1       0.39968    0.29235    0.79427   1.00
H1       0.59895    0.28578    0.69830   1.00
H1       0.40179    0.20527    0.70431   1.00
H1       0.60043    0.21647    0.80207   1.00
C5       0.52239    0.20726    0.81146   1.00
H1       0.47401    0.20621    0.70508   1.00
H2       0.54354    0.19745    0.83401   1.00
H2       0.50103    0.22637    0.82662   1.00
N1       0.50292    0.17294    0.79515   1.00
C6       0.52012    0.14372    0.77528   1.00
C6       0.46460    0.16462    0.79758   1.00
C6       0.49243    0.11657    0.76457   1.00
C6       0.45711    0.12987    0.77874   1.00
H3       0.55099    0.14226    0.76869   1.00
H3       0.44309    0.18291    0.81178   1.00
H3       0.49741    0.09002    0.74828   1.00
H3       0.42903    0.11585    0.77566   1.00
C4       0.25000    0.02085    0.75010   1.00
C4       0.25000    -0.02085   0.74990   1.00
C3       0.22494    0.04292    0.77423   1.00
C3       0.27918    -0.04225   0.76958   1.00
C3       0.27568    0.04184    0.72562   1.00
C3a      0.22032    -0.04263   0.73034   1.00
C2       0.25084    0.10517    0.74875   1.00
C2       0.24946    -0.10517   0.75137   1.00
C3       0.22540    0.08434    0.77350   1.00
C3       0.27885    -0.08359   0.77028   1.00
C3       0.27596    0.08320    0.72484   1.00
C3       0.22045    -0.08415   0.73149   1.00
H1       0.20495    0.02808    0.79367   1.00
H1       0.30223    -0.02685   0.78477   1.00
H1       0.20573    0.10032    0.79235   1.00
H1       0.30170    -0.09895   0.78578   1.00
H1       0.29569    0.09821    0.70527   1.00
H1       0.19793    -0.10043   0.71647   1.00
C5       0.18854    -0.02239   0.70726   1.00
H1       0.29492    0.02599    0.70621   1.00
H2       0.16599    -0.04354   0.69745   1.00
H2       0.17338    -0.00103   0.72637   1.00
N1       0.20485    -0.00292   0.67294   1.00
C6       0.22472    -0.02012   0.64372   1.00
C6       0.20242    0.03540    0.66462   1.00
C6       0.23543    0.00757    0.61657   1.00
C6       0.22126    0.04289    0.62987   1.00
H3       0.23131    -0.05099   0.64226   1.00
H3       0.18822    0.05691    0.68291   1.00
H3       0.25172    0.00259    0.59002   1.00
H3       0.22434    0.07097    0.61585   1.00
C4       0.25010    0.25000    0.52085   1.00
C4       0.24990    0.25000    0.47915   1.00
C3       0.27423    0.22494    0.54292   1.00
C3       0.26958    0.27918    0.45775   1.00
C3       0.22562    0.27568    0.54184   1.00
C3a      0.23034    0.22032    0.45737   1.00
C2       0.24875    0.25084    0.60517   1.00
C2       0.25137    0.24946    0.39483   1.00
C3       0.27350    0.22540    0.58434   1.00
C3       0.27028    0.27885    0.41641   1.00
C3       0.22484    0.27596    0.58320   1.00
C3       0.23149    0.22045    0.41585   1.00
H1       0.29367    0.20495    0.52808   1.00
H1       0.28477    0.30223    0.47315   1.00
H1       0.29235    0.20573    0.60032   1.00
H1       0.28578    0.30170    0.40105   1.00
H1       0.20527    0.29569    0.59821   1.00
H1       0.21647    0.19793    0.39957   1.00
C5       0.20726    0.18854    0.47761   1.00
H1       0.20621    0.29492    0.52599   1.00
H2       0.19745    0.16599    0.45646   1.00
H2       0.22637    0.17338    0.49897   1.00
N1       0.17294    0.20485    0.49708   1.00
C6       0.14372    0.22472    0.47988   1.00
C6       0.16462    0.20242    0.53540   1.00
C6       0.11657    0.23543    0.50757   1.00
C6       0.12987    0.22126    0.54289   1.00
H3       0.14226    0.23131    0.44901   1.00
H3       0.18291    0.18822    0.55691   1.00
H3       0.09002    0.25172    0.50259   1.00
H3       0.11585    0.22434    0.57097   1.00
C4       0.25010    0.75000    0.47915   1.00
C4       0.24990    0.75000    0.52085   1.00
C3       0.27423    0.77506    0.45708   1.00
C3       0.26958    0.72082    0.54225   1.00
C3       0.22562    0.72432    0.45816   1.00
C3a      0.23034    0.77968    0.54263   1.00
C2       0.24875    0.74916    0.39483   1.00
C2       0.25137    0.75054    0.60517   1.00
C3       0.27350    0.77460    0.41566   1.00
C3       0.27028    0.72115    0.58359   1.00
C3       0.22484    0.72404    0.41680   1.00
C3       0.23149    0.77955    0.58415   1.00
H1       0.29367    0.79505    0.47192   1.00
H1       0.28477    0.69777    0.52685   1.00
H1       0.29235    0.79427    0.39968   1.00
H1       0.28578    0.69830    0.59895   1.00
H1       0.20527    0.70431    0.40179   1.00
H1       0.21647    0.80207    0.60043   1.00
C5       0.20726    0.81146    0.52239   1.00
H1       0.20621    0.70508    0.47401   1.00
H2       0.19745    0.83401    0.54354   1.00
H2       0.22637    0.82662    0.50103   1.00
N1       0.17294    0.79515    0.50292   1.00
C6       0.14372    0.77528    0.52012   1.00
C6       0.16462    0.79758    0.46460   1.00
C6       0.11657    0.76457    0.49243   1.00
C6       0.12987    0.77874    0.45711   1.00
H3       0.14226    0.76869    0.55099   1.00
H3       0.18291    0.81178    0.44309   1.00
H3       0.09002    0.74828    0.49741   1.00
H3       0.11585    0.77566    0.42903   1.00
C4       0.25000    0.97915    0.25010   1.00
C4       0.25000    1.02085    0.24990   1.00
C3       0.27506    0.95708    0.27423   1.00
C3       0.22082    1.04225    0.26958   1.00
C3       0.22432    0.95816    0.22562   1.00
C3a      0.27968    1.04263    0.23034   1.00
C2       0.24916    0.89483    0.24875   1.00
C2       0.25054    1.10517    0.25137   1.00
C3       0.27460    0.91566    0.27350   1.00
C3       0.22115    1.08359    0.27028   1.00
C3       0.22404    0.91680    0.22484   1.00
C3       0.27955    1.08415    0.23149   1.00
H1       0.29505    0.97192    0.29367   1.00
H1       0.19777    1.02685    0.28477   1.00
H1       0.29427    0.89968    0.29235   1.00
H1       0.19830    1.09895    0.28578   1.00
H1       0.20431    0.90179    0.20527   1.00
H1       0.30207    1.10043    0.21647   1.00
C5       0.31146    1.02239    0.20726   1.00
H1       0.20508    0.97401    0.20621   1.00
H2       0.33401    1.04354    0.19745   1.00
H2       0.32662    1.00103    0.22637   1.00
N1       0.29515    1.00292    0.17294   1.00
C6       0.27528    1.02012    0.14372   1.00
C6       0.29758    0.96460    0.16462   1.00
C6       0.26457    0.99243    0.11657   1.00
C6       0.27874    0.95711    0.12987   1.00
H3       0.26869    1.05099    0.14226   1.00
H3       0.31178    0.94309    0.18291   1.00
H3       0.24828    0.99741    0.09002   1.00
H3       0.27566    0.92903    0.11585   1.00
C4       0.02085    0.75010    0.25000   1.00
C4       -0.02085   0.74990    0.25000   1.00
C3       0.04292    0.77423    0.22494   1.00
C3       -0.04225   0.76958    0.27918   1.00
C3       0.04184    0.72562    0.27568   1.00
C3a      -0.04263   0.73034    0.22032   1.00
C2       0.10517    0.74875    0.25084   1.00
C2       -0.10517   0.75137    0.24946   1.00
C3       0.08434    0.77350    0.22540   1.00
C3       -0.08359   0.77028    0.27885   1.00
C3       0.08320    0.72484    0.27596   1.00
C3       -0.08415   0.73149    0.22045   1.00
H1       0.02808    0.79367    0.20495   1.00
H1       -0.02685   0.78477    0.30223   1.00
H1       0.10032    0.79235    0.20573   1.00
H1       -0.09895   0.78578    0.30170   1.00
H1       0.09821    0.70527    0.29569   1.00
H1       -0.10043   0.71647    0.19793   1.00
C5       -0.02239   0.70726    0.18854   1.00
H1       0.02599    0.70621    0.29492   1.00
H2       -0.04354   0.69745    0.16599   1.00
H2       -0.00103   0.72637    0.17338   1.00
N1       -0.00292   0.67294    0.20485   1.00
C6       -0.02012   0.64372    0.22472   1.00
C6       0.03540    0.66462    0.20242   1.00
C6       0.00757    0.61657    0.23543   1.00
C6       0.04289    0.62987    0.22126   1.00
H3       -0.05099   0.64226    0.23131   1.00
H3       0.05691    0.68291    0.18822   1.00
H3       0.00259    0.59002    0.25172   1.00
H3       0.07097    0.61585    0.22434   1.00
C4       0.47915    0.75010    0.25000   1.00
C4       0.52085    0.74990    0.25000   1.00
C3       0.45708    0.77423    0.27506   1.00
C3       0.54225    0.76958    0.22082   1.00
C3       0.45816    0.72562    0.22432   1.00
C3a      0.54263    0.73034    0.27968   1.00
C2       0.39483    0.74875    0.24916   1.00
C2       0.60517    0.75137    0.25054   1.00
C3       0.41566    0.77350    0.27460   1.00
C3       0.58359    0.77028    0.22115   1.00
C3       0.41680    0.72484    0.22404   1.00
C3       0.58415    0.73149    0.27955   1.00
H1       0.47192    0.79367    0.29505   1.00
H1       0.52685    0.78477    0.19777   1.00
H1       0.39968    0.79235    0.29427   1.00
H1       0.59895    0.78578    0.19830   1.00
H1       0.40179    0.70527    0.20431   1.00
H1       0.60043    0.71647    0.30207   1.00
C5       0.52239    0.70726    0.31146   1.00
H1       0.47401    0.70621    0.20508   1.00
H2       0.54354    0.69745    0.33401   1.00
H2       0.50103    0.72637    0.32662   1.00
N1       0.50292    0.67294    0.29515   1.00
C6       0.52012    0.64372    0.27528   1.00
C6       0.46460    0.66462    0.29758   1.00
C6       0.49243    0.61657    0.26457   1.00
C6       0.45711    0.62987    0.27874   1.00
H3       0.55099    0.64226    0.26869   1.00
H3       0.44309    0.68291    0.31178   1.00
H3       0.49741    0.59002    0.24828   1.00
H3       0.42903    0.61585    0.27566   1.00
C4       0.25000    0.52085    0.25010   1.00
C4       0.25000    0.47915    0.24990   1.00
C3       0.22494    0.54292    0.27423   1.00
C3       0.27918    0.45775    0.26958   1.00
C3       0.27568    0.54184    0.22562   1.00
C3a      0.22032    0.45737    0.23034   1.00
C2       0.25084    0.60517    0.24875   1.00
C2       0.24946    0.39483    0.25137   1.00
C3       0.22540    0.58434    0.27350   1.00
C3       0.27885    0.41641    0.27028   1.00
C3       0.27596    0.58320    0.22484   1.00
C3       0.22045    0.41585    0.23149   1.00
H1       0.20495    0.52808    0.29367   1.00
H1       0.30223    0.47315    0.28477   1.00
H1       0.20573    0.60032    0.29235   1.00
H1       0.30170    0.40105    0.28578   1.00
H1       0.29569    0.59821    0.20527   1.00
H1       0.19793    0.39957    0.21647   1.00
C5       0.18854    0.47761    0.20726   1.00
H1       0.29492    0.52599    0.20621   1.00
H2       0.16599    0.45646    0.19745   1.00
H2       0.17338    0.49897    0.22637   1.00
N1       0.20485    0.49708    0.17294   1.00
C6       0.22472    0.47988    0.14372   1.00
C6       0.20242    0.53540    0.16462   1.00
C6       0.23543    0.50757    0.11657   1.00
C6       0.22126    0.54289    0.12987   1.00
H3       0.23131    0.44901    0.14226   1.00
H3       0.18822    0.55691    0.18291   1.00
H3       0.25172    0.50259    0.09002   1.00
H3       0.22434    0.57097    0.11585   1.00
C4       0.25010    0.75000    0.02085   1.00
C4       0.24990    0.75000    -0.02085   1.00
C3       0.27423    0.72494    0.04292   1.00
C3       0.26958    0.77918    -0.04225   1.00
C3       0.22562    0.77568    0.04184   1.00
C3a      0.23034    0.72032    -0.04263   1.00
C2       0.24875    0.75084    0.10517   1.00
C2       0.25137    0.74946    -0.10517   1.00
C3       0.27350    0.72540    0.08434   1.00
C3       0.27028    0.77885    -0.08359   1.00
C3       0.22484    0.77596    0.08320   1.00
C3       0.23149    0.72045    -0.08415   1.00
H1       0.29367    0.70495    0.02808   1.00
H1       0.28477    0.80223    -0.02685   1.00
H1       0.29235    0.70573    0.10032   1.00
H1       0.28578    0.80170    -0.09895   1.00
H1       0.20527    0.79569    0.09821   1.00
H1       0.21647    0.69793    -0.10043   1.00
C5       0.20726    0.68854    -0.02239   1.00
H1       0.20621    0.79492    0.02599   1.00
H2       0.19745    0.66599    -0.04354   1.00
H2       0.22637    0.67338    -0.00103   1.00
N1       0.17294    0.70485    -0.00292   1.00
C6       0.14372    0.72472    -0.02012   1.00
C6       0.16462    0.70242    0.03540   1.00
C6       0.11657    0.73543    0.00757   1.00
C6       0.12987    0.72126    0.04289   1.00
H3       0.14226    0.73131    -0.05099   1.00
H3       0.18291    0.68822    0.05691   1.00
H3       0.09002    0.75172    0.00259   1.00
H3       0.11585    0.72434    0.07097   1.00
C4       0.75010    0.25000    0.47915   1.00
C4       0.74990    0.25000    0.52085   1.00
C3       0.77423    0.27506    0.45708   1.00
C3       0.76958    0.22082    0.54225   1.00
C3       0.72562    0.22432    0.45816   1.00
C3a      0.73034    0.27968    0.54263   1.00
C2       0.74875    0.24916    0.39483   1.00
C2       0.75137    0.25054    0.60517   1.00
C3       0.77350    0.27460    0.41566   1.00
C3       0.77028    0.22115    0.58359   1.00
C3       0.72484    0.22404    0.41680   1.00
C3       0.73149    0.27955    0.58415   1.00
H1       0.79367    0.29505    0.47192   1.00
H1       0.78477    0.19777    0.52685   1.00
H1       0.79235    0.29427    0.39968   1.00
H1       0.78578    0.19830    0.59895   1.00
H1       0.70527    0.20431    0.40179   1.00
H1       0.71647    0.30207    0.60043   1.00
C5       0.70726    0.31146    0.52239   1.00
H1       0.70621    0.20508    0.47401   1.00
H2       0.69745    0.33401    0.54354   1.00
H2       0.72637    0.32662    0.50103   1.00
N1       0.67294    0.29515    0.50292   1.00
C6       0.64372    0.27528    0.52012   1.00
C6       0.66462    0.29758    0.46460   1.00
C6       0.61657    0.26457    0.49243   1.00
C6       0.62987    0.27874    0.45711   1.00
H3       0.64226    0.26869    0.55099   1.00
H3       0.68291    0.31178    0.44309   1.00
H3       0.59002    0.24828    0.49741   1.00
H3       0.61585    0.27566    0.42903   1.00
C4       0.75000    0.47915    0.25010   1.00
C4       0.75000    0.52085    0.24990   1.00
C3       0.77506    0.45708    0.27423   1.00
C3       0.72082    0.54225    0.26958   1.00
C3       0.72432    0.45816    0.22562   1.00
C3a      0.77968    0.54263    0.23034   1.00
C2       0.74916    0.39483    0.24875   1.00
C2       0.75054    0.60517    0.25137   1.00
C3       0.77460    0.41566    0.27350   1.00
C3       0.72115    0.58359    0.27028   1.00
C3       0.72404    0.41680    0.22484   1.00
C3       0.77955    0.58415    0.23149   1.00
H1       0.79505    0.47192    0.29367   1.00
H1       0.69777    0.52685    0.28477   1.00
H1       0.79427    0.39968    0.29235   1.00
H1       0.69830    0.59895    0.28578   1.00
H1       0.70431    0.40179    0.20527   1.00
H1       0.80207    0.60043    0.21647   1.00
C5       0.81146    0.52239    0.20726   1.00
H1       0.70508    0.47401    0.20621   1.00
H2       0.83401    0.54354    0.19745   1.00
H2       0.82662    0.50103    0.22637   1.00
N1       0.79515    0.50292    0.17294   1.00
C6       0.77528    0.52012    0.14372   1.00
C6       0.79758    0.46460    0.16462   1.00
C6       0.76457    0.49243    0.11657   1.00
C6       0.77874    0.45711    0.12987   1.00
H3       0.76869    0.55099    0.14226   1.00
H3       0.81178    0.44309    0.18291   1.00
H3       0.74828    0.49741    0.09002   1.00
H3       0.77566    0.42903    0.11585   1.00
C4       0.52085    0.25010    0.25000   1.00
C4       0.47915    0.24990    0.25000   1.00
C3       0.54292    0.27423    0.22494   1.00
C3       0.45775    0.26958    0.27918   1.00
C3       0.54184    0.22562    0.27568   1.00
C3a      0.45737    0.23034    0.22032   1.00
C2       0.60517    0.24875    0.25084   1.00
C2       0.39483    0.25137    0.24946   1.00
C3       0.58434    0.27350    0.22540   1.00
C3       0.41641    0.27028    0.27885   1.00
C3       0.58320    0.22484    0.27596   1.00
C3       0.41585    0.23149    0.22045   1.00
H1       0.52808    0.29367    0.20495   1.00
H1       0.47315    0.28477    0.30223   1.00
H1       0.60032    0.29235    0.20573   1.00
H1       0.40105    0.28578    0.30170   1.00
H1       0.59821    0.20527    0.29569   1.00
H1       0.39957    0.21647    0.19793   1.00
C5       0.47761    0.20726    0.18854   1.00
H1       0.52599    0.20621    0.29492   1.00
H2       0.45646    0.19745    0.16599   1.00
H2       0.49897    0.22637    0.17338   1.00
N1       0.49708    0.17294    0.20485   1.00
C6       0.47988    0.14372    0.22472   1.00
C6       0.53540    0.16462    0.20242   1.00
C6       0.50757    0.11657    0.23543   1.00
C6       0.54289    0.12987    0.22126   1.00
H3       0.44901    0.14226    0.23131   1.00
H3       0.55691    0.18291    0.18822   1.00
H3       0.50259    0.09002    0.25172   1.00
H3       0.57097    0.11585    0.22434   1.00
C4       0.97915    0.25010    0.25000   1.00
C4       1.02085    0.24990    0.25000   1.00
C3       0.95708    0.27423    0.27506   1.00
C3       1.04225    0.26958    0.22082   1.00
C3       0.95816    0.22562    0.22432   1.00
C3a      1.04263    0.23034    0.27968   1.00
C2       0.89483    0.24875    0.24916   1.00
C2       1.10517    0.25137    0.25054   1.00
C3       0.91566    0.27350    0.27460   1.00
C3       1.08359    0.27028    0.22115   1.00
C3       0.91680    0.22484    0.22404   1.00
C3       1.08415    0.23149    0.27955   1.00
H1       0.97192    0.29367    0.29505   1.00
H1       1.02685    0.28477    0.19777   1.00
H1       0.89968    0.29235    0.29427   1.00
H1       1.09895    0.28578    0.19830   1.00
H1       0.90179    0.20527    0.20431   1.00
H1       1.10043    0.21647    0.30207   1.00
C5       1.02239    0.20726    0.31146   1.00
H1       0.97401    0.20621    0.20508   1.00
H2       1.04354    0.19745    0.33401   1.00
H2       1.00103    0.22637    0.32662   1.00
N1       1.00292    0.17294    0.29515   1.00
C6       1.02012    0.14372    0.27528   1.00
C6       0.96460    0.16462    0.29758   1.00
C6       0.99243    0.11657    0.26457   1.00
C6       0.95711    0.12987    0.27874   1.00
H3       1.05099    0.14226    0.26869   1.00
H3       0.94309    0.18291    0.31178   1.00
H3       0.99741    0.09002    0.24828   1.00
H3       0.92903    0.11585    0.27566   1.00
C4       0.75000    0.02085    0.25010   1.00
C4       0.75000    -0.02085   0.24990   1.00
C3       0.72494    0.04292    0.27423   1.00
C3       0.77918    -0.04225   0.26958   1.00
C3       0.77568    0.04184    0.22562   1.00
C3a      0.72032    -0.04263   0.23034   1.00
C2       0.75084    0.10517    0.24875   1.00
C2       0.74946    -0.10517   0.25137   1.00
C3       0.72540    0.08434    0.27350   1.00
C3       0.77885    -0.08359   0.27028   1.00
C3       0.77596    0.08320    0.22484   1.00
C3       0.72045    -0.08415   0.23149   1.00
H1       0.70495    0.02808    0.29367   1.00
H1       0.80223    -0.02685   0.28477   1.00
H1       0.70573    0.10032    0.29235   1.00
H1       0.80170    -0.09895   0.28578   1.00
H1       0.79569    0.09821    0.20527   1.00
H1       0.69793    -0.10043   0.21647   1.00
C5       0.68854    -0.02239   0.20726   1.00
H1       0.79492    0.02599    0.20621   1.00
H2       0.66599    -0.04354   0.19745   1.00
H2       0.67338    -0.00103   0.22637   1.00
N1       0.70485    -0.00292   0.17294   1.00
C6       0.72472    -0.02012   0.14372   1.00
C6       0.70242    0.03540    0.16462   1.00
C6       0.73543    0.00757    0.11657   1.00
C6       0.72126    0.04289    0.12987   1.00
H3       0.73131    -0.05099   0.14226   1.00
H3       0.68822    0.05691    0.18291   1.00
H3       0.75172    0.00259    0.09002   1.00
H3       0.72434    0.07097    0.11585   1.00
C4       0.75010    0.25000    0.02085   1.00
C4       0.74990    0.25000    -0.02085   1.00
C3       0.77423    0.22494    0.04292   1.00
C3       0.76958    0.27918    -0.04225   1.00
C3       0.72562    0.27568    0.04184   1.00
C3a      0.73034    0.22032    -0.04263   1.00
C2       0.74875    0.25084    0.10517   1.00
C2       0.75137    0.24946    -0.10517   1.00
C3       0.77350    0.22540    0.08434   1.00
C3       0.77028    0.27885    -0.08359   1.00
C3       0.72484    0.27596    0.08320   1.00
C3       0.73149    0.22045    -0.08415   1.00
H1       0.79367    0.20495    0.02808   1.00
H1       0.78477    0.30223    -0.02685   1.00
H1       0.79235    0.20573    0.10032   1.00
H1       0.78578    0.30170    -0.09895   1.00
H1       0.70527    0.29569    0.09821   1.00
H1       0.71647    0.19793    -0.10043   1.00
C5       0.70726    0.18854    -0.02239   1.00
H1       0.70621    0.29492    0.02599   1.00
H2       0.69745    0.16599    -0.04354   1.00
H2       0.72637    0.17338    -0.00103   1.00
N1       0.67294    0.20485    -0.00292   1.00
C6       0.64372    0.22472    -0.02012   1.00
C6       0.66462    0.20242    0.03540   1.00
C6       0.61657    0.23543    0.00757   1.00
C6       0.62987    0.22126    0.04289   1.00
H3       0.64226    0.23131    -0.05099   1.00
H3       0.68291    0.18822    0.05691   1.00
H3       0.59002    0.25172    0.00259   1.00
H3       0.61585    0.22434    0.07097   1.00
