data_IRMOF10_SG202_Ligand12_label_d.

_audit_creation_method             'generated by an auxiliary program of Tobunporous'

_symmetry_space_group_name_H-M     'P 1'
_symmetry_Int_Tables_number        1
_symmetry_cell_setting             triclinic

_cell_length_a                    34.2800
_cell_length_b                    34.2800
_cell_length_c                    34.2800
_cell_angle_alpha                 90.0000
_cell_angle_beta                  90.0000
_cell_angle_gamma                 90.0000

loop_
_atom_site_label
_atom_site_fract_x
_atom_site_fract_y
_atom_site_fract_z
_atom_site_occupancy
O1       0.75000    0.75000    0.75000   1.00
Zn1      0.71720    0.78280    0.78280   1.00
Zn1      0.78280    0.71720    0.78280   1.00
Zn1      0.78280    0.78280    0.71720   1.00
Zn1      0.71720    0.71720    0.71720   1.00
O2       0.72650    0.77350    0.83820   1.00
O2       0.72650    0.83820    0.77350   1.00
O2       0.66180    0.77350    0.77350   1.00
O2       0.77350    0.72650    0.83820   1.00
O2       0.83820    0.72650    0.77350   1.00
O2       0.77350    0.66180    0.77350   1.00
O2       0.77350    0.83820    0.72650   1.00
O2       0.83820    0.77350    0.72650   1.00
O2       0.77350    0.77350    0.66180   1.00
O2       0.66180    0.72650    0.72650   1.00
O2       0.72650    0.66180    0.72650   1.00
O2       0.72650    0.72650    0.66180   1.00
C1       0.75000    0.75000    0.85520   1.00
C1       0.75000    0.85520    0.75000   1.00
C1       0.64480    0.75000    0.75000   1.00
C1       0.85520    0.75000    0.75000   1.00
C1       0.75000    0.64480    0.75000   1.00
C1       0.75000    0.75000    0.64480   1.00
O1       0.25000    0.25000    0.75000   1.00
Zn1      0.21720    0.28280    0.78280   1.00
Zn1      0.28280    0.21720    0.78280   1.00
Zn1      0.28280    0.28280    0.71720   1.00
Zn1      0.21720    0.21720    0.71720   1.00
O2       0.22650    0.27350    0.83820   1.00
O2       0.22650    0.33820    0.77350   1.00
O2       0.16180    0.27350    0.77350   1.00
O2       0.27350    0.22650    0.83820   1.00
O2       0.33820    0.22650    0.77350   1.00
O2       0.27350    0.16180    0.77350   1.00
O2       0.27350    0.33820    0.72650   1.00
O2       0.33820    0.27350    0.72650   1.00
O2       0.27350    0.27350    0.66180   1.00
O2       0.16180    0.22650    0.72650   1.00
O2       0.22650    0.16180    0.72650   1.00
O2       0.22650    0.22650    0.66180   1.00
C1       0.25000    0.25000    0.85520   1.00
C1       0.25000    0.35520    0.75000   1.00
C1       0.14480    0.25000    0.75000   1.00
C1       0.35520    0.25000    0.75000   1.00
C1       0.25000    0.14480    0.75000   1.00
C1       0.25000    0.25000    0.64480   1.00
O1       0.25000    0.75000    0.25000   1.00
Zn1      0.21720    0.78280    0.28280   1.00
Zn1      0.28280    0.71720    0.28280   1.00
Zn1      0.28280    0.78280    0.21720   1.00
Zn1      0.21720    0.71720    0.21720   1.00
O2       0.22650    0.77350    0.33820   1.00
O2       0.22650    0.83820    0.27350   1.00
O2       0.16180    0.77350    0.27350   1.00
O2       0.27350    0.72650    0.33820   1.00
O2       0.33820    0.72650    0.27350   1.00
O2       0.27350    0.66180    0.27350   1.00
O2       0.27350    0.83820    0.22650   1.00
O2       0.33820    0.77350    0.22650   1.00
O2       0.27350    0.77350    0.16180   1.00
O2       0.16180    0.72650    0.22650   1.00
O2       0.22650    0.66180    0.22650   1.00
O2       0.22650    0.72650    0.16180   1.00
C1       0.25000    0.75000    0.35520   1.00
C1       0.25000    0.85520    0.25000   1.00
C1       0.14480    0.75000    0.25000   1.00
C1       0.35520    0.75000    0.25000   1.00
C1       0.25000    0.64480    0.25000   1.00
C1       0.25000    0.75000    0.14480   1.00
O1       0.75000    0.25000    0.25000   1.00
Zn1      0.71720    0.28280    0.28280   1.00
Zn1      0.78280    0.21720    0.28280   1.00
Zn1      0.78280    0.28280    0.21720   1.00
Zn1      0.71720    0.21720    0.21720   1.00
O2       0.72650    0.27350    0.33820   1.00
O2       0.72650    0.33820    0.27350   1.00
O2       0.66180    0.27350    0.27350   1.00
O2       0.77350    0.22650    0.33820   1.00
O2       0.83820    0.22650    0.27350   1.00
O2       0.77350    0.16180    0.27350   1.00
O2       0.77350    0.33820    0.22650   1.00
O2       0.83820    0.27350    0.22650   1.00
O2       0.77350    0.27350    0.16180   1.00
O2       0.66180    0.22650    0.22650   1.00
O2       0.72650    0.16180    0.22650   1.00
O2       0.72650    0.22650    0.16180   1.00
C1       0.75000    0.25000    0.35520   1.00
C1       0.75000    0.35520    0.25000   1.00
C1       0.64480    0.25000    0.25000   1.00
C1       0.85520    0.25000    0.25000   1.00
C1       0.75000    0.14480    0.25000   1.00
C1       0.75000    0.25000    0.14480   1.00
O1       0.25000    0.25000    0.25000   1.00
Zn1      0.28280    0.21720    0.21720   1.00
Zn1      0.21720    0.28280    0.21720   1.00
Zn1      0.21720    0.21720    0.28280   1.00
Zn1      0.28280    0.28280    0.28280   1.00
O2       0.27350    0.22650    0.16180   1.00
O2       0.27350    0.16180    0.22650   1.00
O2       0.33820    0.22650    0.22650   1.00
O2       0.22650    0.27350    0.16180   1.00
O2       0.16180    0.27350    0.22650   1.00
O2       0.22650    0.33820    0.22650   1.00
O2       0.22650    0.16180    0.27350   1.00
O2       0.16180    0.22650    0.27350   1.00
O2       0.22650    0.22650    0.33820   1.00
O2       0.33820    0.27350    0.27350   1.00
O2       0.27350    0.33820    0.27350   1.00
O2       0.27350    0.27350    0.33820   1.00
C1       0.25000    0.25000    0.14480   1.00
C1       0.25000    0.14480    0.25000   1.00
C1       0.35520    0.25000    0.25000   1.00
C1       0.14480    0.25000    0.25000   1.00
C1       0.25000    0.35520    0.25000   1.00
C1       0.25000    0.25000    0.35520   1.00
O1       0.75000    0.75000    0.25000   1.00
Zn1      0.78280    0.71720    0.21720   1.00
Zn1      0.71720    0.78280    0.21720   1.00
Zn1      0.71720    0.71720    0.28280   1.00
Zn1      0.78280    0.78280    0.28280   1.00
O2       0.77350    0.72650    0.16180   1.00
O2       0.77350    0.66180    0.22650   1.00
O2       0.83820    0.72650    0.22650   1.00
O2       0.72650    0.77350    0.16180   1.00
O2       0.66180    0.77350    0.22650   1.00
O2       0.72650    0.83820    0.22650   1.00
O2       0.72650    0.66180    0.27350   1.00
O2       0.66180    0.72650    0.27350   1.00
O2       0.72650    0.72650    0.33820   1.00
O2       0.83820    0.77350    0.27350   1.00
O2       0.77350    0.83820    0.27350   1.00
O2       0.77350    0.77350    0.33820   1.00
C1       0.75000    0.75000    0.14480   1.00
C1       0.75000    0.64480    0.25000   1.00
C1       0.85520    0.75000    0.25000   1.00
C1       0.64480    0.75000    0.25000   1.00
C1       0.75000    0.85520    0.25000   1.00
C1       0.75000    0.75000    0.35520   1.00
O1       0.75000    0.25000    0.75000   1.00
Zn1      0.78280    0.21720    0.71720   1.00
Zn1      0.71720    0.28280    0.71720   1.00
Zn1      0.71720    0.21720    0.78280   1.00
Zn1      0.78280    0.28280    0.78280   1.00
O2       0.77350    0.22650    0.66180   1.00
O2       0.77350    0.16180    0.72650   1.00
O2       0.83820    0.22650    0.72650   1.00
O2       0.72650    0.27350    0.66180   1.00
O2       0.66180    0.27350    0.72650   1.00
O2       0.72650    0.33820    0.72650   1.00
O2       0.72650    0.16180    0.77350   1.00
O2       0.66180    0.22650    0.77350   1.00
O2       0.72650    0.22650    0.83820   1.00
O2       0.83820    0.27350    0.77350   1.00
O2       0.77350    0.33820    0.77350   1.00
O2       0.77350    0.27350    0.83820   1.00
C1       0.75000    0.25000    0.64480   1.00
C1       0.75000    0.14480    0.75000   1.00
C1       0.85520    0.25000    0.75000   1.00
C1       0.64480    0.25000    0.75000   1.00
C1       0.75000    0.35520    0.75000   1.00
C1       0.75000    0.25000    0.85520   1.00
O1       0.25000    0.75000    0.75000   1.00
Zn1      0.28280    0.71720    0.71720   1.00
Zn1      0.21720    0.78280    0.71720   1.00
Zn1      0.21720    0.71720    0.78280   1.00
Zn1      0.28280    0.78280    0.78280   1.00
O2       0.27350    0.72650    0.66180   1.00
O2       0.27350    0.66180    0.72650   1.00
O2       0.33820    0.72650    0.72650   1.00
O2       0.22650    0.77350    0.66180   1.00
O2       0.16180    0.77350    0.72650   1.00
O2       0.22650    0.83820    0.72650   1.00
O2       0.22650    0.66180    0.77350   1.00
O2       0.16180    0.72650    0.77350   1.00
O2       0.22650    0.72650    0.83820   1.00
O2       0.33820    0.77350    0.77350   1.00
O2       0.27350    0.83820    0.77350   1.00
O2       0.27350    0.77350    0.83820   1.00
C1       0.25000    0.75000    0.64480   1.00
C1       0.25000    0.64480    0.75000   1.00
C1       0.35520    0.75000    0.75000   1.00
C1       0.14480    0.75000    0.75000   1.00
C1       0.25000    0.85520    0.75000   1.00
C1       0.25000    0.75000    0.85520   1.00
C4       0.75000    0.75078    1.02067   1.00
C4       0.75000    0.74922    0.97933   1.00
C3       0.78516    0.75445    1.04244   1.00
C3       0.78516    0.74555    0.95756   1.00
C4       0.71421    0.74834    1.04150   1.00
C4       0.71421    0.75166    0.95850   1.00
C2       0.75063    0.74998    1.10352   1.00
C2       0.75063    0.75002    0.89648   1.00
C3       0.78529    0.75367    1.08310   1.00
C3       0.78529    0.74633    0.91690   1.00
C3       0.71541    0.74789    1.08306   1.00
C3       0.71541    0.75211    0.91694   1.00
H1       0.81313    0.75893    1.02888   1.00
H1       0.81313    0.74107    0.97112   1.00
C5       0.67821    0.74701    1.02065   1.00
C5       0.67821    0.75299    0.97935   1.00
H1       0.81256    0.75620    1.09886   1.00
H1       0.81256    0.74380    0.90114   1.00
H1       0.68929    0.74653    1.10053   1.00
H1       0.68929    0.75347    0.89947   1.00
C6       0.64032    0.73774    1.04234   1.00
C6       0.64032    0.76226    0.95766   1.00
H2       0.62042    0.72040    1.02358   1.00
H2       0.64523    0.71800    1.06737   1.00
C6       0.62060    0.77515    1.05724   1.00
H2       0.62042    0.77960    0.97642   1.00
H2       0.64523    0.78200    0.93263   1.00
C6       0.62060    0.72485    0.94276   1.00
H2       0.61431    0.79549    1.03274   1.00
C6       0.58259    0.76546    1.07832   1.00
H2       0.64052    0.79080    1.07760   1.00
C6       0.58259    0.73454    0.92168   1.00
H2       0.64052    0.70920    0.92240   1.00
H2       0.61431    0.70451    0.96726   1.00
H2       0.56195    0.75057    1.05822   1.00
H2       0.58828    0.74623    1.10380   1.00
H2       0.56866    0.79271    1.08898   1.00
H2       0.56195    0.74943    0.94178   1.00
H2       0.58828    0.75377    0.89620   1.00
H2       0.56866    0.70729    0.91102   1.00
C4       0.75078    1.02067    0.75000   1.00
C4       0.74922    0.97933    0.75000   1.00
C3       0.75445    1.04244    0.78516   1.00
C3       0.74555    0.95756    0.78516   1.00
C4       0.74834    1.04150    0.71421   1.00
C4       0.75166    0.95850    0.71421   1.00
C2       0.74998    1.10352    0.75063   1.00
C2       0.75002    0.89648    0.75063   1.00
C3       0.75367    1.08310    0.78529   1.00
C3       0.74633    0.91690    0.78529   1.00
C3       0.74789    1.08306    0.71541   1.00
C3       0.75211    0.91694    0.71541   1.00
H1       0.75893    1.02888    0.81313   1.00
H1       0.74107    0.97112    0.81313   1.00
C5       0.74701    1.02065    0.67821   1.00
C5       0.75299    0.97935    0.67821   1.00
H1       0.75620    1.09886    0.81256   1.00
H1       0.74380    0.90114    0.81256   1.00
H1       0.74653    1.10053    0.68929   1.00
H1       0.75347    0.89947    0.68929   1.00
C6       0.73774    1.04234    0.64032   1.00
C6       0.76226    0.95766    0.64032   1.00
H2       0.72040    1.02358    0.62042   1.00
H2       0.71800    1.06737    0.64523   1.00
C6       0.77515    1.05724    0.62060   1.00
H2       0.77960    0.97642    0.62042   1.00
H2       0.78200    0.93263    0.64523   1.00
C6       0.72485    0.94276    0.62060   1.00
H2       0.79549    1.03274    0.61431   1.00
C6       0.76546    1.07832    0.58259   1.00
H2       0.79080    1.07760    0.64052   1.00
C6       0.73454    0.92168    0.58259   1.00
H2       0.70920    0.92240    0.64052   1.00
H2       0.70451    0.96726    0.61431   1.00
H2       0.75057    1.05822    0.56195   1.00
H2       0.74623    1.10380    0.58828   1.00
H2       0.79271    1.08898    0.56866   1.00
H2       0.74943    0.94178    0.56195   1.00
H2       0.75377    0.89620    0.58828   1.00
H2       0.70729    0.91102    0.56866   1.00
C4       0.47933    0.75000    0.74922   1.00
C4       0.52067    0.75000    0.75078   1.00
C3       0.45756    0.78516    0.74555   1.00
C3       0.54244    0.78516    0.75445   1.00
C4       0.45850    0.71421    0.75166   1.00
C4       0.54150    0.71421    0.74834   1.00
C2       0.39648    0.75063    0.75002   1.00
C2       0.60352    0.75063    0.74998   1.00
C3       0.41690    0.78529    0.74633   1.00
C3       0.58310    0.78529    0.75367   1.00
C3       0.41694    0.71541    0.75211   1.00
C3       0.58306    0.71541    0.74789   1.00
H1       0.47112    0.81313    0.74107   1.00
H1       0.52888    0.81313    0.75893   1.00
C5       0.47935    0.67821    0.75299   1.00
C5       0.52065    0.67821    0.74701   1.00
H1       0.40114    0.81256    0.74380   1.00
H1       0.59886    0.81256    0.75620   1.00
H1       0.39947    0.68929    0.75347   1.00
H1       0.60053    0.68929    0.74653   1.00
C6       0.45766    0.64032    0.76226   1.00
C6       0.54234    0.64032    0.73774   1.00
H2       0.47642    0.62042    0.77960   1.00
H2       0.43263    0.64523    0.78200   1.00
C6       0.44276    0.62060    0.72485   1.00
H2       0.52358    0.62042    0.72040   1.00
H2       0.56737    0.64523    0.71800   1.00
C6       0.55724    0.62060    0.77515   1.00
H2       0.46726    0.61431    0.70451   1.00
C6       0.42168    0.58259    0.73454   1.00
H2       0.42240    0.64052    0.70920   1.00
C6       0.57832    0.58259    0.76546   1.00
H2       0.57760    0.64052    0.79080   1.00
H2       0.53274    0.61431    0.79549   1.00
H2       0.44178    0.56195    0.74943   1.00
H2       0.39620    0.58828    0.75377   1.00
H2       0.41102    0.56866    0.70729   1.00
H2       0.55822    0.56195    0.75057   1.00
H2       0.60380    0.58828    0.74623   1.00
H2       0.58898    0.56866    0.79271   1.00
C4       1.02067    0.75000    0.75078   1.00
C4       0.97933    0.75000    0.74922   1.00
C3       1.04244    0.78516    0.75445   1.00
C3       0.95756    0.78516    0.74555   1.00
C4       1.04150    0.71421    0.74834   1.00
C4       0.95850    0.71421    0.75166   1.00
C2       1.10352    0.75063    0.74998   1.00
C2       0.89648    0.75063    0.75002   1.00
C3       1.08310    0.78529    0.75367   1.00
C3       0.91690    0.78529    0.74633   1.00
C3       1.08306    0.71541    0.74789   1.00
C3       0.91694    0.71541    0.75211   1.00
H1       1.02888    0.81313    0.75893   1.00
H1       0.97112    0.81313    0.74107   1.00
C5       1.02065    0.67821    0.74701   1.00
C5       0.97935    0.67821    0.75299   1.00
H1       1.09886    0.81256    0.75620   1.00
H1       0.90114    0.81256    0.74380   1.00
H1       1.10053    0.68929    0.74653   1.00
H1       0.89947    0.68929    0.75347   1.00
C6       1.04234    0.64032    0.73774   1.00
C6       0.95766    0.64032    0.76226   1.00
H2       1.02358    0.62042    0.72040   1.00
H2       1.06737    0.64523    0.71800   1.00
C6       1.05724    0.62060    0.77515   1.00
H2       0.97642    0.62042    0.77960   1.00
H2       0.93263    0.64523    0.78200   1.00
C6       0.94276    0.62060    0.72485   1.00
H2       1.03274    0.61431    0.79549   1.00
C6       1.07832    0.58259    0.76546   1.00
H2       1.07760    0.64052    0.79080   1.00
C6       0.92168    0.58259    0.73454   1.00
H2       0.92240    0.64052    0.70920   1.00
H2       0.96726    0.61431    0.70451   1.00
H2       1.05822    0.56195    0.75057   1.00
H2       1.10380    0.58828    0.74623   1.00
H2       1.08898    0.56866    0.79271   1.00
H2       0.94178    0.56195    0.74943   1.00
H2       0.89620    0.58828    0.75377   1.00
H2       0.91102    0.56866    0.70729   1.00
C4       0.74922    0.47933    0.75000   1.00
C4       0.75078    0.52067    0.75000   1.00
C3       0.74555    0.45756    0.78516   1.00
C3       0.75445    0.54244    0.78516   1.00
C4       0.75166    0.45850    0.71421   1.00
C4       0.74834    0.54150    0.71421   1.00
C2       0.75002    0.39648    0.75063   1.00
C2       0.74998    0.60352    0.75063   1.00
C3       0.74633    0.41690    0.78529   1.00
C3       0.75367    0.58310    0.78529   1.00
C3       0.75211    0.41694    0.71541   1.00
C3       0.74789    0.58306    0.71541   1.00
H1       0.74107    0.47112    0.81313   1.00
H1       0.75893    0.52888    0.81313   1.00
C5       0.75299    0.47935    0.67821   1.00
C5       0.74701    0.52065    0.67821   1.00
H1       0.74380    0.40114    0.81256   1.00
H1       0.75620    0.59886    0.81256   1.00
H1       0.75347    0.39947    0.68929   1.00
H1       0.74653    0.60053    0.68929   1.00
C6       0.76226    0.45766    0.64032   1.00
C6       0.73774    0.54234    0.64032   1.00
H2       0.77960    0.47642    0.62042   1.00
H2       0.78200    0.43263    0.64523   1.00
C6       0.72485    0.44276    0.62060   1.00
H2       0.72040    0.52358    0.62042   1.00
H2       0.71800    0.56737    0.64523   1.00
C6       0.77515    0.55724    0.62060   1.00
H2       0.70451    0.46726    0.61431   1.00
C6       0.73454    0.42168    0.58259   1.00
H2       0.70920    0.42240    0.64052   1.00
C6       0.76546    0.57832    0.58259   1.00
H2       0.79080    0.57760    0.64052   1.00
H2       0.79549    0.53274    0.61431   1.00
H2       0.74943    0.44178    0.56195   1.00
H2       0.75377    0.39620    0.58828   1.00
H2       0.70729    0.41102    0.56866   1.00
H2       0.75057    0.55822    0.56195   1.00
H2       0.74623    0.60380    0.58828   1.00
H2       0.79271    0.58898    0.56866   1.00
C4       0.75000    0.74922    0.47933   1.00
C4       0.75000    0.75078    0.52067   1.00
C3       0.78516    0.74555    0.45756   1.00
C3       0.78516    0.75445    0.54244   1.00
C4       0.71421    0.75166    0.45850   1.00
C4       0.71421    0.74834    0.54150   1.00
C2       0.75063    0.75002    0.39648   1.00
C2       0.75063    0.74998    0.60352   1.00
C3       0.78529    0.74633    0.41690   1.00
C3       0.78529    0.75367    0.58310   1.00
C3       0.71541    0.75211    0.41694   1.00
C3       0.71541    0.74789    0.58306   1.00
H1       0.81313    0.74107    0.47112   1.00
H1       0.81313    0.75893    0.52888   1.00
C5       0.67821    0.75299    0.47935   1.00
C5       0.67821    0.74701    0.52065   1.00
H1       0.81256    0.74380    0.40114   1.00
H1       0.81256    0.75620    0.59886   1.00
H1       0.68929    0.75347    0.39947   1.00
H1       0.68929    0.74653    0.60053   1.00
C6       0.64032    0.76226    0.45766   1.00
C6       0.64032    0.73774    0.54234   1.00
H2       0.62042    0.77960    0.47642   1.00
H2       0.64523    0.78200    0.43263   1.00
C6       0.62060    0.72485    0.44276   1.00
H2       0.62042    0.72040    0.52358   1.00
H2       0.64523    0.71800    0.56737   1.00
C6       0.62060    0.77515    0.55724   1.00
H2       0.61431    0.70451    0.46726   1.00
C6       0.58259    0.73454    0.42168   1.00
H2       0.64052    0.70920    0.42240   1.00
C6       0.58259    0.76546    0.57832   1.00
H2       0.64052    0.79080    0.57760   1.00
H2       0.61431    0.79549    0.53274   1.00
H2       0.56195    0.74943    0.44178   1.00
H2       0.58828    0.75377    0.39620   1.00
H2       0.56866    0.70729    0.41102   1.00
H2       0.56195    0.75057    0.55822   1.00
H2       0.58828    0.74623    0.60380   1.00
H2       0.56866    0.79271    0.58898   1.00
C4       0.25000    0.25078    1.02067   1.00
C4       0.25000    0.24922    0.97933   1.00
C3       0.28516    0.25445    1.04244   1.00
C3       0.28516    0.24555    0.95756   1.00
C4       0.21421    0.24834    1.04150   1.00
C4       0.21421    0.25166    0.95850   1.00
C2       0.25063    0.24998    1.10352   1.00
C2       0.25063    0.25002    0.89648   1.00
C3       0.28529    0.25367    1.08310   1.00
C3       0.28529    0.24633    0.91690   1.00
C3       0.21541    0.24789    1.08306   1.00
C3       0.21541    0.25211    0.91694   1.00
H1       0.31313    0.25893    1.02888   1.00
H1       0.31313    0.24107    0.97112   1.00
C5       0.17821    0.24701    1.02065   1.00
C5       0.17821    0.25299    0.97935   1.00
H1       0.31256    0.25620    1.09886   1.00
H1       0.31256    0.24380    0.90114   1.00
H1       0.18929    0.24653    1.10053   1.00
H1       0.18929    0.25347    0.89947   1.00
C6       0.14032    0.23774    1.04234   1.00
C6       0.14032    0.26226    0.95766   1.00
H2       0.12042    0.22040    1.02358   1.00
H2       0.14523    0.21800    1.06737   1.00
C6       0.12060    0.27515    1.05724   1.00
H2       0.12042    0.27960    0.97642   1.00
H2       0.14523    0.28200    0.93263   1.00
C6       0.12060    0.22485    0.94276   1.00
H2       0.11431    0.29549    1.03274   1.00
C6       0.08259    0.26546    1.07832   1.00
H2       0.14052    0.29080    1.07760   1.00
C6       0.08259    0.23454    0.92168   1.00
H2       0.14052    0.20920    0.92240   1.00
H2       0.11431    0.20451    0.96726   1.00
H2       0.06195    0.25057    1.05822   1.00
H2       0.08828    0.24623    1.10380   1.00
H2       0.06866    0.29271    1.08898   1.00
H2       0.06195    0.24943    0.94178   1.00
H2       0.08828    0.25377    0.89620   1.00
H2       0.06866    0.20729    0.91102   1.00
C4       0.25078    0.52067    0.75000   1.00
C4       0.24922    0.47933    0.75000   1.00
C3       0.25445    0.54244    0.78516   1.00
C3       0.24555    0.45756    0.78516   1.00
C4       0.24834    0.54150    0.71421   1.00
C4       0.25166    0.45850    0.71421   1.00
C2       0.24998    0.60352    0.75063   1.00
C2       0.25002    0.39648    0.75063   1.00
C3       0.25367    0.58310    0.78529   1.00
C3       0.24633    0.41690    0.78529   1.00
C3       0.24789    0.58306    0.71541   1.00
C3       0.25211    0.41694    0.71541   1.00
H1       0.25893    0.52888    0.81313   1.00
H1       0.24107    0.47112    0.81313   1.00
C5       0.24701    0.52065    0.67821   1.00
C5       0.25299    0.47935    0.67821   1.00
H1       0.25620    0.59886    0.81256   1.00
H1       0.24380    0.40114    0.81256   1.00
H1       0.24653    0.60053    0.68929   1.00
H1       0.25347    0.39947    0.68929   1.00
C6       0.23774    0.54234    0.64032   1.00
C6       0.26226    0.45766    0.64032   1.00
H2       0.22040    0.52358    0.62042   1.00
H2       0.21800    0.56737    0.64523   1.00
C6       0.27515    0.55724    0.62060   1.00
H2       0.27960    0.47642    0.62042   1.00
H2       0.28200    0.43263    0.64523   1.00
C6       0.22485    0.44276    0.62060   1.00
H2       0.29549    0.53274    0.61431   1.00
C6       0.26546    0.57832    0.58259   1.00
H2       0.29080    0.57760    0.64052   1.00
C6       0.23454    0.42168    0.58259   1.00
H2       0.20920    0.42240    0.64052   1.00
H2       0.20451    0.46726    0.61431   1.00
H2       0.25057    0.55822    0.56195   1.00
H2       0.24623    0.60380    0.58828   1.00
H2       0.29271    0.58898    0.56866   1.00
H2       0.24943    0.44178    0.56195   1.00
H2       0.25377    0.39620    0.58828   1.00
H2       0.20729    0.41102    0.56866   1.00
C4       -0.02067   0.25000    0.74922   1.00
C4       0.02067    0.25000    0.75078   1.00
C3       -0.04244   0.28516    0.74555   1.00
C3       0.04244    0.28516    0.75445   1.00
C4       -0.04150   0.21421    0.75166   1.00
C4       0.04150    0.21421    0.74834   1.00
C2       -0.10352   0.25063    0.75002   1.00
C2       0.10352    0.25063    0.74998   1.00
C3       -0.08310   0.28529    0.74633   1.00
C3       0.08310    0.28529    0.75367   1.00
C3       -0.08306   0.21541    0.75211   1.00
C3       0.08306    0.21541    0.74789   1.00
H1       -0.02888   0.31313    0.74107   1.00
H1       0.02888    0.31313    0.75893   1.00
C5       -0.02065   0.17821    0.75299   1.00
C5       0.02065    0.17821    0.74701   1.00
H1       -0.09886   0.31256    0.74380   1.00
H1       0.09886    0.31256    0.75620   1.00
H1       -0.10053   0.18929    0.75347   1.00
H1       0.10053    0.18929    0.74653   1.00
C6       -0.04234   0.14032    0.76226   1.00
C6       0.04234    0.14032    0.73774   1.00
H2       -0.02358   0.12042    0.77960   1.00
H2       -0.06737   0.14523    0.78200   1.00
C6       -0.05724   0.12060    0.72485   1.00
H2       0.02358    0.12042    0.72040   1.00
H2       0.06737    0.14523    0.71800   1.00
C6       0.05724    0.12060    0.77515   1.00
H2       -0.03274   0.11431    0.70451   1.00
C6       -0.07832   0.08259    0.73454   1.00
H2       -0.07760   0.14052    0.70920   1.00
C6       0.07832    0.08259    0.76546   1.00
H2       0.07760    0.14052    0.79080   1.00
H2       0.03274    0.11431    0.79549   1.00
H2       -0.05822   0.06195    0.74943   1.00
H2       -0.10380   0.08828    0.75377   1.00
H2       -0.08898   0.06866    0.70729   1.00
H2       0.05822    0.06195    0.75057   1.00
H2       0.10380    0.08828    0.74623   1.00
H2       0.08898    0.06866    0.79271   1.00
C4       0.52067    0.25000    0.75078   1.00
C4       0.47933    0.25000    0.74922   1.00
C3       0.54244    0.28516    0.75445   1.00
C3       0.45756    0.28516    0.74555   1.00
C4       0.54150    0.21421    0.74834   1.00
C4       0.45850    0.21421    0.75166   1.00
C2       0.60352    0.25063    0.74998   1.00
C2       0.39648    0.25063    0.75002   1.00
C3       0.58310    0.28529    0.75367   1.00
C3       0.41690    0.28529    0.74633   1.00
C3       0.58306    0.21541    0.74789   1.00
C3       0.41694    0.21541    0.75211   1.00
H1       0.52888    0.31313    0.75893   1.00
H1       0.47112    0.31313    0.74107   1.00
C5       0.52065    0.17821    0.74701   1.00
C5       0.47935    0.17821    0.75299   1.00
H1       0.59886    0.31256    0.75620   1.00
H1       0.40114    0.31256    0.74380   1.00
H1       0.60053    0.18929    0.74653   1.00
H1       0.39947    0.18929    0.75347   1.00
C6       0.54234    0.14032    0.73774   1.00
C6       0.45766    0.14032    0.76226   1.00
H2       0.52358    0.12042    0.72040   1.00
H2       0.56737    0.14523    0.71800   1.00
C6       0.55724    0.12060    0.77515   1.00
H2       0.47642    0.12042    0.77960   1.00
H2       0.43263    0.14523    0.78200   1.00
C6       0.44276    0.12060    0.72485   1.00
H2       0.53274    0.11431    0.79549   1.00
C6       0.57832    0.08259    0.76546   1.00
H2       0.57760    0.14052    0.79080   1.00
C6       0.42168    0.08259    0.73454   1.00
H2       0.42240    0.14052    0.70920   1.00
H2       0.46726    0.11431    0.70451   1.00
H2       0.55822    0.06195    0.75057   1.00
H2       0.60380    0.08828    0.74623   1.00
H2       0.58898    0.06866    0.79271   1.00
H2       0.44178    0.06195    0.74943   1.00
H2       0.39620    0.08828    0.75377   1.00
H2       0.41102    0.06866    0.70729   1.00
C4       0.24922    -0.02067   0.75000   1.00
C4       0.25078    0.02067    0.75000   1.00
C3       0.24555    -0.04244   0.78516   1.00
C3       0.25445    0.04244    0.78516   1.00
C4       0.25166    -0.04150   0.71421   1.00
C4       0.24834    0.04150    0.71421   1.00
C2       0.25002    -0.10352   0.75063   1.00
C2       0.24998    0.10352    0.75063   1.00
C3       0.24633    -0.08310   0.78529   1.00
C3       0.25367    0.08310    0.78529   1.00
C3       0.25211    -0.08306   0.71541   1.00
C3       0.24789    0.08306    0.71541   1.00
H1       0.24107    -0.02888   0.81313   1.00
H1       0.25893    0.02888    0.81313   1.00
C5       0.25299    -0.02065   0.67821   1.00
C5       0.24701    0.02065    0.67821   1.00
H1       0.24380    -0.09886   0.81256   1.00
H1       0.25620    0.09886    0.81256   1.00
H1       0.25347    -0.10053   0.68929   1.00
H1       0.24653    0.10053    0.68929   1.00
C6       0.26226    -0.04234   0.64032   1.00
C6       0.23774    0.04234    0.64032   1.00
H2       0.27960    -0.02358   0.62042   1.00
H2       0.28200    -0.06737   0.64523   1.00
C6       0.22485    -0.05724   0.62060   1.00
H2       0.22040    0.02358    0.62042   1.00
H2       0.21800    0.06737    0.64523   1.00
C6       0.27515    0.05724    0.62060   1.00
H2       0.20451    -0.03274   0.61431   1.00
C6       0.23454    -0.07832   0.58259   1.00
H2       0.20920    -0.07760   0.64052   1.00
C6       0.26546    0.07832    0.58259   1.00
H2       0.29080    0.07760    0.64052   1.00
H2       0.29549    0.03274    0.61431   1.00
H2       0.24943    -0.05822   0.56195   1.00
H2       0.25377    -0.10380   0.58828   1.00
H2       0.20729    -0.08898   0.56866   1.00
H2       0.25057    0.05822    0.56195   1.00
H2       0.24623    0.10380    0.58828   1.00
H2       0.29271    0.08898    0.56866   1.00
C4       0.25000    0.24922    0.47933   1.00
C4       0.25000    0.25078    0.52067   1.00
C3       0.28516    0.24555    0.45756   1.00
C3       0.28516    0.25445    0.54244   1.00
C4       0.21421    0.25166    0.45850   1.00
C4       0.21421    0.24834    0.54150   1.00
C2       0.25063    0.25002    0.39648   1.00
C2       0.25063    0.24998    0.60352   1.00
C3       0.28529    0.24633    0.41690   1.00
C3       0.28529    0.25367    0.58310   1.00
C3       0.21541    0.25211    0.41694   1.00
C3       0.21541    0.24789    0.58306   1.00
H1       0.31313    0.24107    0.47112   1.00
H1       0.31313    0.25893    0.52888   1.00
C5       0.17821    0.25299    0.47935   1.00
C5       0.17821    0.24701    0.52065   1.00
H1       0.31256    0.24380    0.40114   1.00
H1       0.31256    0.25620    0.59886   1.00
H1       0.18929    0.25347    0.39947   1.00
H1       0.18929    0.24653    0.60053   1.00
C6       0.14032    0.26226    0.45766   1.00
C6       0.14032    0.23774    0.54234   1.00
H2       0.12042    0.27960    0.47642   1.00
H2       0.14523    0.28200    0.43263   1.00
C6       0.12060    0.22485    0.44276   1.00
H2       0.12042    0.22040    0.52358   1.00
H2       0.14523    0.21800    0.56737   1.00
C6       0.12060    0.27515    0.55724   1.00
H2       0.11431    0.20451    0.46726   1.00
C6       0.08259    0.23454    0.42168   1.00
H2       0.14052    0.20920    0.42240   1.00
C6       0.08259    0.26546    0.57832   1.00
H2       0.14052    0.29080    0.57760   1.00
H2       0.11431    0.29549    0.53274   1.00
H2       0.06195    0.24943    0.44178   1.00
H2       0.08828    0.25377    0.39620   1.00
H2       0.06866    0.20729    0.41102   1.00
H2       0.06195    0.25057    0.55822   1.00
H2       0.08828    0.24623    0.60380   1.00
H2       0.06866    0.29271    0.58898   1.00
C4       0.25000    0.75078    0.52067   1.00
C4       0.25000    0.74922    0.47933   1.00
C3       0.28516    0.75445    0.54244   1.00
C3       0.28516    0.74555    0.45756   1.00
C4       0.21421    0.74834    0.54150   1.00
C4       0.21421    0.75166    0.45850   1.00
C2       0.25063    0.74998    0.60352   1.00
C2       0.25063    0.75002    0.39648   1.00
C3       0.28529    0.75367    0.58310   1.00
C3       0.28529    0.74633    0.41690   1.00
C3       0.21541    0.74789    0.58306   1.00
C3       0.21541    0.75211    0.41694   1.00
H1       0.31313    0.75893    0.52888   1.00
H1       0.31313    0.74107    0.47112   1.00
C5       0.17821    0.74701    0.52065   1.00
C5       0.17821    0.75299    0.47935   1.00
H1       0.31256    0.75620    0.59886   1.00
H1       0.31256    0.74380    0.40114   1.00
H1       0.18929    0.74653    0.60053   1.00
H1       0.18929    0.75347    0.39947   1.00
C6       0.14032    0.73774    0.54234   1.00
C6       0.14032    0.76226    0.45766   1.00
H2       0.12042    0.72040    0.52358   1.00
H2       0.14523    0.71800    0.56737   1.00
C6       0.12060    0.77515    0.55724   1.00
H2       0.12042    0.77960    0.47642   1.00
H2       0.14523    0.78200    0.43263   1.00
C6       0.12060    0.72485    0.44276   1.00
H2       0.11431    0.79549    0.53274   1.00
C6       0.08259    0.76546    0.57832   1.00
H2       0.14052    0.79080    0.57760   1.00
C6       0.08259    0.73454    0.42168   1.00
H2       0.14052    0.70920    0.42240   1.00
H2       0.11431    0.70451    0.46726   1.00
H2       0.06195    0.75057    0.55822   1.00
H2       0.08828    0.74623    0.60380   1.00
H2       0.06866    0.79271    0.58898   1.00
H2       0.06195    0.74943    0.44178   1.00
H2       0.08828    0.75377    0.39620   1.00
H2       0.06866    0.70729    0.41102   1.00
C4       0.25078    1.02067    0.25000   1.00
C4       0.24922    0.97933    0.25000   1.00
C3       0.25445    1.04244    0.28516   1.00
C3       0.24555    0.95756    0.28516   1.00
C4       0.24834    1.04150    0.21421   1.00
C4       0.25166    0.95850    0.21421   1.00
C2       0.24998    1.10352    0.25063   1.00
C2       0.25002    0.89648    0.25063   1.00
C3       0.25367    1.08310    0.28529   1.00
C3       0.24633    0.91690    0.28529   1.00
C3       0.24789    1.08306    0.21541   1.00
C3       0.25211    0.91694    0.21541   1.00
H1       0.25893    1.02888    0.31313   1.00
H1       0.24107    0.97112    0.31313   1.00
C5       0.24701    1.02065    0.17821   1.00
C5       0.25299    0.97935    0.17821   1.00
H1       0.25620    1.09886    0.31256   1.00
H1       0.24380    0.90114    0.31256   1.00
H1       0.24653    1.10053    0.18929   1.00
H1       0.25347    0.89947    0.18929   1.00
C6       0.23774    1.04234    0.14032   1.00
C6       0.26226    0.95766    0.14032   1.00
H2       0.22040    1.02358    0.12042   1.00
H2       0.21800    1.06737    0.14523   1.00
C6       0.27515    1.05724    0.12060   1.00
H2       0.27960    0.97642    0.12042   1.00
H2       0.28200    0.93263    0.14523   1.00
C6       0.22485    0.94276    0.12060   1.00
H2       0.29549    1.03274    0.11431   1.00
C6       0.26546    1.07832    0.08259   1.00
H2       0.29080    1.07760    0.14052   1.00
C6       0.23454    0.92168    0.08259   1.00
H2       0.20920    0.92240    0.14052   1.00
H2       0.20451    0.96726    0.11431   1.00
H2       0.25057    1.05822    0.06195   1.00
H2       0.24623    1.10380    0.08828   1.00
H2       0.29271    1.08898    0.06866   1.00
H2       0.24943    0.94178    0.06195   1.00
H2       0.25377    0.89620    0.08828   1.00
H2       0.20729    0.91102    0.06866   1.00
C4       -0.02067   0.75000    0.24922   1.00
C4       0.02067    0.75000    0.25078   1.00
C3       -0.04244   0.78516    0.24555   1.00
C3       0.04244    0.78516    0.25445   1.00
C4       -0.04150   0.71421    0.25166   1.00
C4       0.04150    0.71421    0.24834   1.00
C2       -0.10352   0.75063    0.25002   1.00
C2       0.10352    0.75063    0.24998   1.00
C3       -0.08310   0.78529    0.24633   1.00
C3       0.08310    0.78529    0.25367   1.00
C3       -0.08306   0.71541    0.25211   1.00
C3       0.08306    0.71541    0.24789   1.00
H1       -0.02888   0.81313    0.24107   1.00
H1       0.02888    0.81313    0.25893   1.00
C5       -0.02065   0.67821    0.25299   1.00
C5       0.02065    0.67821    0.24701   1.00
H1       -0.09886   0.81256    0.24380   1.00
H1       0.09886    0.81256    0.25620   1.00
H1       -0.10053   0.68929    0.25347   1.00
H1       0.10053    0.68929    0.24653   1.00
C6       -0.04234   0.64032    0.26226   1.00
C6       0.04234    0.64032    0.23774   1.00
H2       -0.02358   0.62042    0.27960   1.00
H2       -0.06737   0.64523    0.28200   1.00
C6       -0.05724   0.62060    0.22485   1.00
H2       0.02358    0.62042    0.22040   1.00
H2       0.06737    0.64523    0.21800   1.00
C6       0.05724    0.62060    0.27515   1.00
H2       -0.03274   0.61431    0.20451   1.00
C6       -0.07832   0.58259    0.23454   1.00
H2       -0.07760   0.64052    0.20920   1.00
C6       0.07832    0.58259    0.26546   1.00
H2       0.07760    0.64052    0.29080   1.00
H2       0.03274    0.61431    0.29549   1.00
H2       -0.05822   0.56195    0.24943   1.00
H2       -0.10380   0.58828    0.25377   1.00
H2       -0.08898   0.56866    0.20729   1.00
H2       0.05822    0.56195    0.25057   1.00
H2       0.10380    0.58828    0.24623   1.00
H2       0.08898    0.56866    0.29271   1.00
C4       0.52067    0.75000    0.25078   1.00
C4       0.47933    0.75000    0.24922   1.00
C3       0.54244    0.78516    0.25445   1.00
C3       0.45756    0.78516    0.24555   1.00
C4       0.54150    0.71421    0.24834   1.00
C4       0.45850    0.71421    0.25166   1.00
C2       0.60352    0.75063    0.24998   1.00
C2       0.39648    0.75063    0.25002   1.00
C3       0.58310    0.78529    0.25367   1.00
C3       0.41690    0.78529    0.24633   1.00
C3       0.58306    0.71541    0.24789   1.00
C3       0.41694    0.71541    0.25211   1.00
H1       0.52888    0.81313    0.25893   1.00
H1       0.47112    0.81313    0.24107   1.00
C5       0.52065    0.67821    0.24701   1.00
C5       0.47935    0.67821    0.25299   1.00
H1       0.59886    0.81256    0.25620   1.00
H1       0.40114    0.81256    0.24380   1.00
H1       0.60053    0.68929    0.24653   1.00
H1       0.39947    0.68929    0.25347   1.00
C6       0.54234    0.64032    0.23774   1.00
C6       0.45766    0.64032    0.26226   1.00
H2       0.52358    0.62042    0.22040   1.00
H2       0.56737    0.64523    0.21800   1.00
C6       0.55724    0.62060    0.27515   1.00
H2       0.47642    0.62042    0.27960   1.00
H2       0.43263    0.64523    0.28200   1.00
C6       0.44276    0.62060    0.22485   1.00
H2       0.53274    0.61431    0.29549   1.00
C6       0.57832    0.58259    0.26546   1.00
H2       0.57760    0.64052    0.29080   1.00
C6       0.42168    0.58259    0.23454   1.00
H2       0.42240    0.64052    0.20920   1.00
H2       0.46726    0.61431    0.20451   1.00
H2       0.55822    0.56195    0.25057   1.00
H2       0.60380    0.58828    0.24623   1.00
H2       0.58898    0.56866    0.29271   1.00
H2       0.44178    0.56195    0.24943   1.00
H2       0.39620    0.58828    0.25377   1.00
H2       0.41102    0.56866    0.20729   1.00
C4       0.24922    0.47933    0.25000   1.00
C4       0.25078    0.52067    0.25000   1.00
C3       0.24555    0.45756    0.28516   1.00
C3       0.25445    0.54244    0.28516   1.00
C4       0.25166    0.45850    0.21421   1.00
C4       0.24834    0.54150    0.21421   1.00
C2       0.25002    0.39648    0.25063   1.00
C2       0.24998    0.60352    0.25063   1.00
C3       0.24633    0.41690    0.28529   1.00
C3       0.25367    0.58310    0.28529   1.00
C3       0.25211    0.41694    0.21541   1.00
C3       0.24789    0.58306    0.21541   1.00
H1       0.24107    0.47112    0.31313   1.00
H1       0.25893    0.52888    0.31313   1.00
C5       0.25299    0.47935    0.17821   1.00
C5       0.24701    0.52065    0.17821   1.00
H1       0.24380    0.40114    0.31256   1.00
H1       0.25620    0.59886    0.31256   1.00
H1       0.25347    0.39947    0.18929   1.00
H1       0.24653    0.60053    0.18929   1.00
C6       0.26226    0.45766    0.14032   1.00
C6       0.23774    0.54234    0.14032   1.00
H2       0.27960    0.47642    0.12042   1.00
H2       0.28200    0.43263    0.14523   1.00
C6       0.22485    0.44276    0.12060   1.00
H2       0.22040    0.52358    0.12042   1.00
H2       0.21800    0.56737    0.14523   1.00
C6       0.27515    0.55724    0.12060   1.00
H2       0.20451    0.46726    0.11431   1.00
C6       0.23454    0.42168    0.08259   1.00
H2       0.20920    0.42240    0.14052   1.00
C6       0.26546    0.57832    0.08259   1.00
H2       0.29080    0.57760    0.14052   1.00
H2       0.29549    0.53274    0.11431   1.00
H2       0.24943    0.44178    0.06195   1.00
H2       0.25377    0.39620    0.08828   1.00
H2       0.20729    0.41102    0.06866   1.00
H2       0.25057    0.55822    0.06195   1.00
H2       0.24623    0.60380    0.08828   1.00
H2       0.29271    0.58898    0.06866   1.00
C4       0.25000    0.74922    -0.02067   1.00
C4       0.25000    0.75078    0.02067   1.00
C3       0.28516    0.74555    -0.04244   1.00
C3       0.28516    0.75445    0.04244   1.00
C4       0.21421    0.75166    -0.04150   1.00
C4       0.21421    0.74834    0.04150   1.00
C2       0.25063    0.75002    -0.10352   1.00
C2       0.25063    0.74998    0.10352   1.00
C3       0.28529    0.74633    -0.08310   1.00
C3       0.28529    0.75367    0.08310   1.00
C3       0.21541    0.75211    -0.08306   1.00
C3       0.21541    0.74789    0.08306   1.00
H1       0.31313    0.74107    -0.02888   1.00
H1       0.31313    0.75893    0.02888   1.00
C5       0.17821    0.75299    -0.02065   1.00
C5       0.17821    0.74701    0.02065   1.00
H1       0.31256    0.74380    -0.09886   1.00
H1       0.31256    0.75620    0.09886   1.00
H1       0.18929    0.75347    -0.10053   1.00
H1       0.18929    0.74653    0.10053   1.00
C6       0.14032    0.76226    -0.04234   1.00
C6       0.14032    0.73774    0.04234   1.00
H2       0.12042    0.77960    -0.02358   1.00
H2       0.14523    0.78200    -0.06737   1.00
C6       0.12060    0.72485    -0.05724   1.00
H2       0.12042    0.72040    0.02358   1.00
H2       0.14523    0.71800    0.06737   1.00
C6       0.12060    0.77515    0.05724   1.00
H2       0.11431    0.70451    -0.03274   1.00
C6       0.08259    0.73454    -0.07832   1.00
H2       0.14052    0.70920    -0.07760   1.00
C6       0.08259    0.76546    0.07832   1.00
H2       0.14052    0.79080    0.07760   1.00
H2       0.11431    0.79549    0.03274   1.00
H2       0.06195    0.74943    -0.05822   1.00
H2       0.08828    0.75377    -0.10380   1.00
H2       0.06866    0.70729    -0.08898   1.00
H2       0.06195    0.75057    0.05822   1.00
H2       0.08828    0.74623    0.10380   1.00
H2       0.06866    0.79271    0.08898   1.00
C4       0.75000    0.25078    0.52067   1.00
C4       0.75000    0.24922    0.47933   1.00
C3       0.78516    0.25445    0.54244   1.00
C3       0.78516    0.24555    0.45756   1.00
C4       0.71421    0.24834    0.54150   1.00
C4       0.71421    0.25166    0.45850   1.00
C2       0.75063    0.24998    0.60352   1.00
C2       0.75063    0.25002    0.39648   1.00
C3       0.78529    0.25367    0.58310   1.00
C3       0.78529    0.24633    0.41690   1.00
C3       0.71541    0.24789    0.58306   1.00
C3       0.71541    0.25211    0.41694   1.00
H1       0.81313    0.25893    0.52888   1.00
H1       0.81313    0.24107    0.47112   1.00
C5       0.67821    0.24701    0.52065   1.00
C5       0.67821    0.25299    0.47935   1.00
H1       0.81256    0.25620    0.59886   1.00
H1       0.81256    0.24380    0.40114   1.00
H1       0.68929    0.24653    0.60053   1.00
H1       0.68929    0.25347    0.39947   1.00
C6       0.64032    0.23774    0.54234   1.00
C6       0.64032    0.26226    0.45766   1.00
H2       0.62042    0.22040    0.52358   1.00
H2       0.64523    0.21800    0.56737   1.00
C6       0.62060    0.27515    0.55724   1.00
H2       0.62042    0.27960    0.47642   1.00
H2       0.64523    0.28200    0.43263   1.00
C6       0.62060    0.22485    0.44276   1.00
H2       0.61431    0.29549    0.53274   1.00
C6       0.58259    0.26546    0.57832   1.00
H2       0.64052    0.29080    0.57760   1.00
C6       0.58259    0.23454    0.42168   1.00
H2       0.64052    0.20920    0.42240   1.00
H2       0.61431    0.20451    0.46726   1.00
H2       0.56195    0.25057    0.55822   1.00
H2       0.58828    0.24623    0.60380   1.00
H2       0.56866    0.29271    0.58898   1.00
H2       0.56195    0.24943    0.44178   1.00
H2       0.58828    0.25377    0.39620   1.00
H2       0.56866    0.20729    0.41102   1.00
C4       0.75078    0.52067    0.25000   1.00
C4       0.74922    0.47933    0.25000   1.00
C3       0.75445    0.54244    0.28516   1.00
C3       0.74555    0.45756    0.28516   1.00
C4       0.74834    0.54150    0.21421   1.00
C4       0.75166    0.45850    0.21421   1.00
C2       0.74998    0.60352    0.25063   1.00
C2       0.75002    0.39648    0.25063   1.00
C3       0.75367    0.58310    0.28529   1.00
C3       0.74633    0.41690    0.28529   1.00
C3       0.74789    0.58306    0.21541   1.00
C3       0.75211    0.41694    0.21541   1.00
H1       0.75893    0.52888    0.31313   1.00
H1       0.74107    0.47112    0.31313   1.00
C5       0.74701    0.52065    0.17821   1.00
C5       0.75299    0.47935    0.17821   1.00
H1       0.75620    0.59886    0.31256   1.00
H1       0.74380    0.40114    0.31256   1.00
H1       0.74653    0.60053    0.18929   1.00
H1       0.75347    0.39947    0.18929   1.00
C6       0.73774    0.54234    0.14032   1.00
C6       0.76226    0.45766    0.14032   1.00
H2       0.72040    0.52358    0.12042   1.00
H2       0.71800    0.56737    0.14523   1.00
C6       0.77515    0.55724    0.12060   1.00
H2       0.77960    0.47642    0.12042   1.00
H2       0.78200    0.43263    0.14523   1.00
C6       0.72485    0.44276    0.12060   1.00
H2       0.79549    0.53274    0.11431   1.00
C6       0.76546    0.57832    0.08259   1.00
H2       0.79080    0.57760    0.14052   1.00
C6       0.73454    0.42168    0.08259   1.00
H2       0.70920    0.42240    0.14052   1.00
H2       0.70451    0.46726    0.11431   1.00
H2       0.75057    0.55822    0.06195   1.00
H2       0.74623    0.60380    0.08828   1.00
H2       0.79271    0.58898    0.06866   1.00
H2       0.74943    0.44178    0.06195   1.00
H2       0.75377    0.39620    0.08828   1.00
H2       0.70729    0.41102    0.06866   1.00
C4       0.47933    0.25000    0.24922   1.00
C4       0.52067    0.25000    0.25078   1.00
C3       0.45756    0.28516    0.24555   1.00
C3       0.54244    0.28516    0.25445   1.00
C4       0.45850    0.21421    0.25166   1.00
C4       0.54150    0.21421    0.24834   1.00
C2       0.39648    0.25063    0.25002   1.00
C2       0.60352    0.25063    0.24998   1.00
C3       0.41690    0.28529    0.24633   1.00
C3       0.58310    0.28529    0.25367   1.00
C3       0.41694    0.21541    0.25211   1.00
C3       0.58306    0.21541    0.24789   1.00
H1       0.47112    0.31313    0.24107   1.00
H1       0.52888    0.31313    0.25893   1.00
C5       0.47935    0.17821    0.25299   1.00
C5       0.52065    0.17821    0.24701   1.00
H1       0.40114    0.31256    0.24380   1.00
H1       0.59886    0.31256    0.25620   1.00
H1       0.39947    0.18929    0.25347   1.00
H1       0.60053    0.18929    0.24653   1.00
C6       0.45766    0.14032    0.26226   1.00
C6       0.54234    0.14032    0.23774   1.00
H2       0.47642    0.12042    0.27960   1.00
H2       0.43263    0.14523    0.28200   1.00
C6       0.44276    0.12060    0.22485   1.00
H2       0.52358    0.12042    0.22040   1.00
H2       0.56737    0.14523    0.21800   1.00
C6       0.55724    0.12060    0.27515   1.00
H2       0.46726    0.11431    0.20451   1.00
C6       0.42168    0.08259    0.23454   1.00
H2       0.42240    0.14052    0.20920   1.00
C6       0.57832    0.08259    0.26546   1.00
H2       0.57760    0.14052    0.29080   1.00
H2       0.53274    0.11431    0.29549   1.00
H2       0.44178    0.06195    0.24943   1.00
H2       0.39620    0.08828    0.25377   1.00
H2       0.41102    0.06866    0.20729   1.00
H2       0.55822    0.06195    0.25057   1.00
H2       0.60380    0.08828    0.24623   1.00
H2       0.58898    0.06866    0.29271   1.00
C4       1.02067    0.25000    0.25078   1.00
C4       0.97933    0.25000    0.24922   1.00
C3       1.04244    0.28516    0.25445   1.00
C3       0.95756    0.28516    0.24555   1.00
C4       1.04150    0.21421    0.24834   1.00
C4       0.95850    0.21421    0.25166   1.00
C2       1.10352    0.25063    0.24998   1.00
C2       0.89648    0.25063    0.25002   1.00
C3       1.08310    0.28529    0.25367   1.00
C3       0.91690    0.28529    0.24633   1.00
C3       1.08306    0.21541    0.24789   1.00
C3       0.91694    0.21541    0.25211   1.00
H1       1.02888    0.31313    0.25893   1.00
H1       0.97112    0.31313    0.24107   1.00
C5       1.02065    0.17821    0.24701   1.00
C5       0.97935    0.17821    0.25299   1.00
H1       1.09886    0.31256    0.25620   1.00
H1       0.90114    0.31256    0.24380   1.00
H1       1.10053    0.18929    0.24653   1.00
H1       0.89947    0.18929    0.25347   1.00
C6       1.04234    0.14032    0.23774   1.00
C6       0.95766    0.14032    0.26226   1.00
H2       1.02358    0.12042    0.22040   1.00
H2       1.06737    0.14523    0.21800   1.00
C6       1.05724    0.12060    0.27515   1.00
H2       0.97642    0.12042    0.27960   1.00
H2       0.93263    0.14523    0.28200   1.00
C6       0.94276    0.12060    0.22485   1.00
H2       1.03274    0.11431    0.29549   1.00
C6       1.07832    0.08259    0.26546   1.00
H2       1.07760    0.14052    0.29080   1.00
C6       0.92168    0.08259    0.23454   1.00
H2       0.92240    0.14052    0.20920   1.00
H2       0.96726    0.11431    0.20451   1.00
H2       1.05822    0.06195    0.25057   1.00
H2       1.10380    0.08828    0.24623   1.00
H2       1.08898    0.06866    0.29271   1.00
H2       0.94178    0.06195    0.24943   1.00
H2       0.89620    0.08828    0.25377   1.00
H2       0.91102    0.06866    0.20729   1.00
C4       0.74922    -0.02067   0.25000   1.00
C4       0.75078    0.02067    0.25000   1.00
C3       0.74555    -0.04244   0.28516   1.00
C3       0.75445    0.04244    0.28516   1.00
C4       0.75166    -0.04150   0.21421   1.00
C4       0.74834    0.04150    0.21421   1.00
C2       0.75002    -0.10352   0.25063   1.00
C2       0.74998    0.10352    0.25063   1.00
C3       0.74633    -0.08310   0.28529   1.00
C3       0.75367    0.08310    0.28529   1.00
C3       0.75211    -0.08306   0.21541   1.00
C3       0.74789    0.08306    0.21541   1.00
H1       0.74107    -0.02888   0.31313   1.00
H1       0.75893    0.02888    0.31313   1.00
C5       0.75299    -0.02065   0.17821   1.00
C5       0.74701    0.02065    0.17821   1.00
H1       0.74380    -0.09886   0.31256   1.00
H1       0.75620    0.09886    0.31256   1.00
H1       0.75347    -0.10053   0.18929   1.00
H1       0.74653    0.10053    0.18929   1.00
C6       0.76226    -0.04234   0.14032   1.00
C6       0.73774    0.04234    0.14032   1.00
H2       0.77960    -0.02358   0.12042   1.00
H2       0.78200    -0.06737   0.14523   1.00
C6       0.72485    -0.05724   0.12060   1.00
H2       0.72040    0.02358    0.12042   1.00
H2       0.71800    0.06737    0.14523   1.00
C6       0.77515    0.05724    0.12060   1.00
H2       0.70451    -0.03274   0.11431   1.00
C6       0.73454    -0.07832   0.08259   1.00
H2       0.70920    -0.07760   0.14052   1.00
C6       0.76546    0.07832    0.08259   1.00
H2       0.79080    0.07760    0.14052   1.00
H2       0.79549    0.03274    0.11431   1.00
H2       0.74943    -0.05822   0.06195   1.00
H2       0.75377    -0.10380   0.08828   1.00
H2       0.70729    -0.08898   0.06866   1.00
H2       0.75057    0.05822    0.06195   1.00
H2       0.74623    0.10380    0.08828   1.00
H2       0.79271    0.08898    0.06866   1.00
C4       0.75000    0.24922    -0.02067   1.00
C4       0.75000    0.25078    0.02067   1.00
C3       0.78516    0.24555    -0.04244   1.00
C3       0.78516    0.25445    0.04244   1.00
C4       0.71421    0.25166    -0.04150   1.00
C4       0.71421    0.24834    0.04150   1.00
C2       0.75063    0.25002    -0.10352   1.00
C2       0.75063    0.24998    0.10352   1.00
C3       0.78529    0.24633    -0.08310   1.00
C3       0.78529    0.25367    0.08310   1.00
C3       0.71541    0.25211    -0.08306   1.00
C3       0.71541    0.24789    0.08306   1.00
H1       0.81313    0.24107    -0.02888   1.00
H1       0.81313    0.25893    0.02888   1.00
C5       0.67821    0.25299    -0.02065   1.00
C5       0.67821    0.24701    0.02065   1.00
H1       0.81256    0.24380    -0.09886   1.00
H1       0.81256    0.25620    0.09886   1.00
H1       0.68929    0.25347    -0.10053   1.00
H1       0.68929    0.24653    0.10053   1.00
C6       0.64032    0.26226    -0.04234   1.00
C6       0.64032    0.23774    0.04234   1.00
H2       0.62042    0.27960    -0.02358   1.00
H2       0.64523    0.28200    -0.06737   1.00
C6       0.62060    0.22485    -0.05724   1.00
H2       0.62042    0.22040    0.02358   1.00
H2       0.64523    0.21800    0.06737   1.00
C6       0.62060    0.27515    0.05724   1.00
H2       0.61431    0.20451    -0.03274   1.00
C6       0.58259    0.23454    -0.07832   1.00
H2       0.64052    0.20920    -0.07760   1.00
C6       0.58259    0.26546    0.07832   1.00
H2       0.64052    0.29080    0.07760   1.00
H2       0.61431    0.29549    0.03274   1.00
H2       0.56195    0.24943    -0.05822   1.00
H2       0.58828    0.25377    -0.10380   1.00
H2       0.56866    0.20729    -0.08898   1.00
H2       0.56195    0.25057    0.05822   1.00
H2       0.58828    0.24623    0.10380   1.00
H2       0.56866    0.29271    0.08898   1.00
