data_IRMOF10_SG202_Ligand8_label_k.

_audit_creation_method             'generated by an auxiliary program of Tobunporous'

_symmetry_space_group_name_H-M     'P 1'
_symmetry_Int_Tables_number        1
_symmetry_cell_setting             triclinic

_cell_length_a                    34.2800
_cell_length_b                    34.2800
_cell_length_c                    34.2800
_cell_angle_alpha                 90.0000
_cell_angle_beta                  90.0000
_cell_angle_gamma                 90.0000

loop_
_atom_site_label
_atom_site_fract_x
_atom_site_fract_y
_atom_site_fract_z
_atom_site_occupancy
O1       0.75000    0.75000    0.75000   1.00
Zn1      0.71720    0.78280    0.78280   1.00
Zn1      0.78280    0.71720    0.78280   1.00
Zn1      0.78280    0.78280    0.71720   1.00
Zn1      0.71720    0.71720    0.71720   1.00
O2       0.72650    0.77350    0.83820   1.00
O2       0.72650    0.83820    0.77350   1.00
O2       0.66180    0.77350    0.77350   1.00
O2       0.77350    0.72650    0.83820   1.00
O2       0.83820    0.72650    0.77350   1.00
O2       0.77350    0.66180    0.77350   1.00
O2       0.77350    0.83820    0.72650   1.00
O2       0.83820    0.77350    0.72650   1.00
O2       0.77350    0.77350    0.66180   1.00
O2       0.66180    0.72650    0.72650   1.00
O2       0.72650    0.66180    0.72650   1.00
O2       0.72650    0.72650    0.66180   1.00
C1       0.75000    0.75000    0.85520   1.00
C1       0.75000    0.85520    0.75000   1.00
C1       0.64480    0.75000    0.75000   1.00
C1       0.85520    0.75000    0.75000   1.00
C1       0.75000    0.64480    0.75000   1.00
C1       0.75000    0.75000    0.64480   1.00
O1       0.25000    0.25000    0.75000   1.00
Zn1      0.21720    0.28280    0.78280   1.00
Zn1      0.28280    0.21720    0.78280   1.00
Zn1      0.28280    0.28280    0.71720   1.00
Zn1      0.21720    0.21720    0.71720   1.00
O2       0.22650    0.27350    0.83820   1.00
O2       0.22650    0.33820    0.77350   1.00
O2       0.16180    0.27350    0.77350   1.00
O2       0.27350    0.22650    0.83820   1.00
O2       0.33820    0.22650    0.77350   1.00
O2       0.27350    0.16180    0.77350   1.00
O2       0.27350    0.33820    0.72650   1.00
O2       0.33820    0.27350    0.72650   1.00
O2       0.27350    0.27350    0.66180   1.00
O2       0.16180    0.22650    0.72650   1.00
O2       0.22650    0.16180    0.72650   1.00
O2       0.22650    0.22650    0.66180   1.00
C1       0.25000    0.25000    0.85520   1.00
C1       0.25000    0.35520    0.75000   1.00
C1       0.14480    0.25000    0.75000   1.00
C1       0.35520    0.25000    0.75000   1.00
C1       0.25000    0.14480    0.75000   1.00
C1       0.25000    0.25000    0.64480   1.00
O1       0.25000    0.75000    0.25000   1.00
Zn1      0.21720    0.78280    0.28280   1.00
Zn1      0.28280    0.71720    0.28280   1.00
Zn1      0.28280    0.78280    0.21720   1.00
Zn1      0.21720    0.71720    0.21720   1.00
O2       0.22650    0.77350    0.33820   1.00
O2       0.22650    0.83820    0.27350   1.00
O2       0.16180    0.77350    0.27350   1.00
O2       0.27350    0.72650    0.33820   1.00
O2       0.33820    0.72650    0.27350   1.00
O2       0.27350    0.66180    0.27350   1.00
O2       0.27350    0.83820    0.22650   1.00
O2       0.33820    0.77350    0.22650   1.00
O2       0.27350    0.77350    0.16180   1.00
O2       0.16180    0.72650    0.22650   1.00
O2       0.22650    0.66180    0.22650   1.00
O2       0.22650    0.72650    0.16180   1.00
C1       0.25000    0.75000    0.35520   1.00
C1       0.25000    0.85520    0.25000   1.00
C1       0.14480    0.75000    0.25000   1.00
C1       0.35520    0.75000    0.25000   1.00
C1       0.25000    0.64480    0.25000   1.00
C1       0.25000    0.75000    0.14480   1.00
O1       0.75000    0.25000    0.25000   1.00
Zn1      0.71720    0.28280    0.28280   1.00
Zn1      0.78280    0.21720    0.28280   1.00
Zn1      0.78280    0.28280    0.21720   1.00
Zn1      0.71720    0.21720    0.21720   1.00
O2       0.72650    0.27350    0.33820   1.00
O2       0.72650    0.33820    0.27350   1.00
O2       0.66180    0.27350    0.27350   1.00
O2       0.77350    0.22650    0.33820   1.00
O2       0.83820    0.22650    0.27350   1.00
O2       0.77350    0.16180    0.27350   1.00
O2       0.77350    0.33820    0.22650   1.00
O2       0.83820    0.27350    0.22650   1.00
O2       0.77350    0.27350    0.16180   1.00
O2       0.66180    0.22650    0.22650   1.00
O2       0.72650    0.16180    0.22650   1.00
O2       0.72650    0.22650    0.16180   1.00
C1       0.75000    0.25000    0.35520   1.00
C1       0.75000    0.35520    0.25000   1.00
C1       0.64480    0.25000    0.25000   1.00
C1       0.85520    0.25000    0.25000   1.00
C1       0.75000    0.14480    0.25000   1.00
C1       0.75000    0.25000    0.14480   1.00
O1       0.25000    0.25000    0.25000   1.00
Zn1      0.28280    0.21720    0.21720   1.00
Zn1      0.21720    0.28280    0.21720   1.00
Zn1      0.21720    0.21720    0.28280   1.00
Zn1      0.28280    0.28280    0.28280   1.00
O2       0.27350    0.22650    0.16180   1.00
O2       0.27350    0.16180    0.22650   1.00
O2       0.33820    0.22650    0.22650   1.00
O2       0.22650    0.27350    0.16180   1.00
O2       0.16180    0.27350    0.22650   1.00
O2       0.22650    0.33820    0.22650   1.00
O2       0.22650    0.16180    0.27350   1.00
O2       0.16180    0.22650    0.27350   1.00
O2       0.22650    0.22650    0.33820   1.00
O2       0.33820    0.27350    0.27350   1.00
O2       0.27350    0.33820    0.27350   1.00
O2       0.27350    0.27350    0.33820   1.00
C1       0.25000    0.25000    0.14480   1.00
C1       0.25000    0.14480    0.25000   1.00
C1       0.35520    0.25000    0.25000   1.00
C1       0.14480    0.25000    0.25000   1.00
C1       0.25000    0.35520    0.25000   1.00
C1       0.25000    0.25000    0.35520   1.00
O1       0.75000    0.75000    0.25000   1.00
Zn1      0.78280    0.71720    0.21720   1.00
Zn1      0.71720    0.78280    0.21720   1.00
Zn1      0.71720    0.71720    0.28280   1.00
Zn1      0.78280    0.78280    0.28280   1.00
O2       0.77350    0.72650    0.16180   1.00
O2       0.77350    0.66180    0.22650   1.00
O2       0.83820    0.72650    0.22650   1.00
O2       0.72650    0.77350    0.16180   1.00
O2       0.66180    0.77350    0.22650   1.00
O2       0.72650    0.83820    0.22650   1.00
O2       0.72650    0.66180    0.27350   1.00
O2       0.66180    0.72650    0.27350   1.00
O2       0.72650    0.72650    0.33820   1.00
O2       0.83820    0.77350    0.27350   1.00
O2       0.77350    0.83820    0.27350   1.00
O2       0.77350    0.77350    0.33820   1.00
C1       0.75000    0.75000    0.14480   1.00
C1       0.75000    0.64480    0.25000   1.00
C1       0.85520    0.75000    0.25000   1.00
C1       0.64480    0.75000    0.25000   1.00
C1       0.75000    0.85520    0.25000   1.00
C1       0.75000    0.75000    0.35520   1.00
O1       0.75000    0.25000    0.75000   1.00
Zn1      0.78280    0.21720    0.71720   1.00
Zn1      0.71720    0.28280    0.71720   1.00
Zn1      0.71720    0.21720    0.78280   1.00
Zn1      0.78280    0.28280    0.78280   1.00
O2       0.77350    0.22650    0.66180   1.00
O2       0.77350    0.16180    0.72650   1.00
O2       0.83820    0.22650    0.72650   1.00
O2       0.72650    0.27350    0.66180   1.00
O2       0.66180    0.27350    0.72650   1.00
O2       0.72650    0.33820    0.72650   1.00
O2       0.72650    0.16180    0.77350   1.00
O2       0.66180    0.22650    0.77350   1.00
O2       0.72650    0.22650    0.83820   1.00
O2       0.83820    0.27350    0.77350   1.00
O2       0.77350    0.33820    0.77350   1.00
O2       0.77350    0.27350    0.83820   1.00
C1       0.75000    0.25000    0.64480   1.00
C1       0.75000    0.14480    0.75000   1.00
C1       0.85520    0.25000    0.75000   1.00
C1       0.64480    0.25000    0.75000   1.00
C1       0.75000    0.35520    0.75000   1.00
C1       0.75000    0.25000    0.85520   1.00
O1       0.25000    0.75000    0.75000   1.00
Zn1      0.28280    0.71720    0.71720   1.00
Zn1      0.21720    0.78280    0.71720   1.00
Zn1      0.21720    0.71720    0.78280   1.00
Zn1      0.28280    0.78280    0.78280   1.00
O2       0.27350    0.72650    0.66180   1.00
O2       0.27350    0.66180    0.72650   1.00
O2       0.33820    0.72650    0.72650   1.00
O2       0.22650    0.77350    0.66180   1.00
O2       0.16180    0.77350    0.72650   1.00
O2       0.22650    0.83820    0.72650   1.00
O2       0.22650    0.66180    0.77350   1.00
O2       0.16180    0.72650    0.77350   1.00
O2       0.22650    0.72650    0.83820   1.00
O2       0.33820    0.77350    0.77350   1.00
O2       0.27350    0.83820    0.77350   1.00
O2       0.27350    0.77350    0.83820   1.00
C1       0.25000    0.75000    0.64480   1.00
C1       0.25000    0.64480    0.75000   1.00
C1       0.35520    0.75000    0.75000   1.00
C1       0.14480    0.75000    0.75000   1.00
C1       0.25000    0.85520    0.75000   1.00
C1       0.25000    0.75000    0.85520   1.00
C4       0.75007    0.74993    0.97915   1.00
C4       0.74993    0.75007    1.02085   1.00
C3       0.78485    0.75059    0.95708   1.00
C3       0.74321    0.71552    1.04225   1.00
C3       0.71460    0.74908    0.95816   1.00
C3a      0.75708    0.78489    1.04263   1.00
C2       0.74852    0.75029    0.89483   1.00
C2       0.75135    0.74941    1.10517   1.00
C3       0.78402    0.75078    0.91566   1.00
C3       0.74394    0.71526    1.08359   1.00
C3       0.71386    0.74943    0.91680   1.00
C3       0.75780    0.78398    1.08415   1.00
H1       0.81273    0.75098    0.97192   1.00
H1       0.73765    0.68848    1.02685   1.00
H1       0.81125    0.75137    0.89968   1.00
H1       0.73875    0.68814    1.09895   1.00
H1       0.68606    0.74931    0.90179   1.00
H1       0.76311    0.81053    1.10043   1.00
C5       0.76324    0.82368    1.02239   1.00
H1       0.68727    0.74919    0.97401   1.00
H2       0.77224    0.84656    1.04354   1.00
H2       0.78747    0.82089    1.00103   1.00
N1       0.72742    0.83641    1.00292   1.00
C6       0.69272    0.84303    1.02012   1.00
C6       0.72327    0.84402    0.96460   1.00
C6       0.66595    0.85465    0.99243   1.00
C6       0.68538    0.85526    0.95711   1.00
H3       0.68702    0.83940    1.05099   1.00
H3       0.74624    0.84112    0.94309   1.00
H3       0.63565    0.86190    0.99741   1.00
H3       0.67327    0.86300    0.92903   1.00
C4       0.74993    0.97915    0.75007   1.00
C4       0.75007    1.02085    0.74993   1.00
C3       0.75059    0.95708    0.78485   1.00
C3       0.71552    1.04225    0.74321   1.00
C3       0.74908    0.95816    0.71460   1.00
C3a      0.78489    1.04263    0.75708   1.00
C2       0.75029    0.89483    0.74852   1.00
C2       0.74941    1.10517    0.75135   1.00
C3       0.75078    0.91566    0.78402   1.00
C3       0.71526    1.08359    0.74394   1.00
C3       0.74943    0.91680    0.71386   1.00
C3       0.78398    1.08415    0.75780   1.00
H1       0.75098    0.97192    0.81273   1.00
H1       0.68848    1.02685    0.73765   1.00
H1       0.75137    0.89968    0.81125   1.00
H1       0.68814    1.09895    0.73875   1.00
H1       0.74931    0.90179    0.68606   1.00
H1       0.81053    1.10043    0.76311   1.00
C5       0.82368    1.02239    0.76324   1.00
H1       0.74919    0.97401    0.68727   1.00
H2       0.84656    1.04354    0.77224   1.00
H2       0.82089    1.00103    0.78747   1.00
N1       0.83641    1.00292    0.72742   1.00
C6       0.84303    1.02012    0.69272   1.00
C6       0.84402    0.96460    0.72327   1.00
C6       0.85465    0.99243    0.66595   1.00
C6       0.85526    0.95711    0.68538   1.00
H3       0.83940    1.05099    0.68702   1.00
H3       0.84112    0.94309    0.74624   1.00
H3       0.86190    0.99741    0.63565   1.00
H3       0.86300    0.92903    0.67327   1.00
C4       0.52085    0.75007    0.75007   1.00
C4       0.47915    0.74993    0.74993   1.00
C3       0.54292    0.78485    0.74941   1.00
C3       0.45775    0.74321    0.78448   1.00
C3       0.54184    0.71460    0.75092   1.00
C3a      0.45737    0.75708    0.71511   1.00
C2       0.60517    0.74852    0.74971   1.00
C2       0.39483    0.75135    0.75059   1.00
C3       0.58434    0.78402    0.74922   1.00
C3       0.41641    0.74394    0.78474   1.00
C3       0.58320    0.71386    0.75057   1.00
C3       0.41585    0.75780    0.71602   1.00
H1       0.52808    0.81273    0.74902   1.00
H1       0.47315    0.73765    0.81152   1.00
H1       0.60032    0.81125    0.74863   1.00
H1       0.40105    0.73875    0.81186   1.00
H1       0.59821    0.68606    0.75069   1.00
H1       0.39957    0.76311    0.68947   1.00
C5       0.47761    0.76324    0.67632   1.00
H1       0.52599    0.68727    0.75081   1.00
H2       0.45646    0.77224    0.65344   1.00
H2       0.49897    0.78747    0.67911   1.00
N1       0.49708    0.72742    0.66359   1.00
C6       0.47988    0.69272    0.65697   1.00
C6       0.53540    0.72327    0.65598   1.00
C6       0.50757    0.66595    0.64535   1.00
C6       0.54289    0.68538    0.64474   1.00
H3       0.44901    0.68702    0.66060   1.00
H3       0.55691    0.74624    0.65888   1.00
H3       0.50259    0.63565    0.63810   1.00
H3       0.57097    0.67327    0.63700   1.00
C4       0.97915    0.75007    0.74993   1.00
C4       1.02085    0.74993    0.75007   1.00
C3       0.95708    0.78485    0.75059   1.00
C3       1.04225    0.74321    0.71552   1.00
C3       0.95816    0.71460    0.74908   1.00
C3a      1.04263    0.75708    0.78489   1.00
C2       0.89483    0.74852    0.75029   1.00
C2       1.10517    0.75135    0.74941   1.00
C3       0.91566    0.78402    0.75078   1.00
C3       1.08359    0.74394    0.71526   1.00
C3       0.91680    0.71386    0.74943   1.00
C3       1.08415    0.75780    0.78398   1.00
H1       0.97192    0.81273    0.75098   1.00
H1       1.02685    0.73765    0.68848   1.00
H1       0.89968    0.81125    0.75137   1.00
H1       1.09895    0.73875    0.68814   1.00
H1       0.90179    0.68606    0.74931   1.00
H1       1.10043    0.76311    0.81053   1.00
C5       1.02239    0.76324    0.82368   1.00
H1       0.97401    0.68727    0.74919   1.00
H2       1.04354    0.77224    0.84656   1.00
H2       1.00103    0.78747    0.82089   1.00
N1       1.00292    0.72742    0.83641   1.00
C6       1.02012    0.69272    0.84303   1.00
C6       0.96460    0.72327    0.84402   1.00
C6       0.99243    0.66595    0.85465   1.00
C6       0.95711    0.68538    0.85526   1.00
H3       1.05099    0.68702    0.83940   1.00
H3       0.94309    0.74624    0.84112   1.00
H3       0.99741    0.63565    0.86190   1.00
H3       0.92903    0.67327    0.86300   1.00
C4       0.75007    0.52085    0.75007   1.00
C4       0.74993    0.47915    0.74993   1.00
C3       0.74941    0.54292    0.78485   1.00
C3       0.78448    0.45775    0.74321   1.00
C3       0.75092    0.54184    0.71460   1.00
C3a      0.71511    0.45737    0.75708   1.00
C2       0.74971    0.60517    0.74852   1.00
C2       0.75059    0.39483    0.75135   1.00
C3       0.74922    0.58434    0.78402   1.00
C3       0.78474    0.41641    0.74394   1.00
C3       0.75057    0.58320    0.71386   1.00
C3       0.71602    0.41585    0.75780   1.00
H1       0.74902    0.52808    0.81273   1.00
H1       0.81152    0.47315    0.73765   1.00
H1       0.74863    0.60032    0.81125   1.00
H1       0.81186    0.40105    0.73875   1.00
H1       0.75069    0.59821    0.68606   1.00
H1       0.68947    0.39957    0.76311   1.00
C5       0.67632    0.47761    0.76324   1.00
H1       0.75081    0.52599    0.68727   1.00
H2       0.65344    0.45646    0.77224   1.00
H2       0.67911    0.49897    0.78747   1.00
N1       0.66359    0.49708    0.72742   1.00
C6       0.65697    0.47988    0.69272   1.00
C6       0.65598    0.53540    0.72327   1.00
C6       0.64535    0.50757    0.66595   1.00
C6       0.64474    0.54289    0.68538   1.00
H3       0.66060    0.44901    0.68702   1.00
H3       0.65888    0.55691    0.74624   1.00
H3       0.63810    0.50259    0.63565   1.00
H3       0.63700    0.57097    0.67327   1.00
C4       0.75007    0.75007    0.52085   1.00
C4       0.74993    0.74993    0.47915   1.00
C3       0.78485    0.74941    0.54292   1.00
C3       0.74321    0.78448    0.45775   1.00
C3       0.71460    0.75092    0.54184   1.00
C3a      0.75708    0.71511    0.45737   1.00
C2       0.74852    0.74971    0.60517   1.00
C2       0.75135    0.75059    0.39483   1.00
C3       0.78402    0.74922    0.58434   1.00
C3       0.74394    0.78474    0.41641   1.00
C3       0.71386    0.75057    0.58320   1.00
C3       0.75780    0.71602    0.41585   1.00
H1       0.81273    0.74902    0.52808   1.00
H1       0.73765    0.81152    0.47315   1.00
H1       0.81125    0.74863    0.60032   1.00
H1       0.73875    0.81186    0.40105   1.00
H1       0.68606    0.75069    0.59821   1.00
H1       0.76311    0.68947    0.39957   1.00
C5       0.76324    0.67632    0.47761   1.00
H1       0.68727    0.75081    0.52599   1.00
H2       0.77224    0.65344    0.45646   1.00
H2       0.78747    0.67911    0.49897   1.00
N1       0.72742    0.66359    0.49708   1.00
C6       0.69272    0.65697    0.47988   1.00
C6       0.72327    0.65598    0.53540   1.00
C6       0.66595    0.64535    0.50757   1.00
C6       0.68538    0.64474    0.54289   1.00
H3       0.68702    0.66060    0.44901   1.00
H3       0.74624    0.65888    0.55691   1.00
H3       0.63565    0.63810    0.50259   1.00
H3       0.67327    0.63700    0.57097   1.00
C4       0.25007    0.24993    0.97915   1.00
C4       0.24993    0.25007    1.02085   1.00
C3       0.28485    0.25059    0.95708   1.00
C3       0.24321    0.21552    1.04225   1.00
C3       0.21460    0.24908    0.95816   1.00
C3a      0.25708    0.28489    1.04263   1.00
C2       0.24852    0.25029    0.89483   1.00
C2       0.25135    0.24941    1.10517   1.00
C3       0.28402    0.25078    0.91566   1.00
C3       0.24394    0.21526    1.08359   1.00
C3       0.21386    0.24943    0.91680   1.00
C3       0.25780    0.28398    1.08415   1.00
H1       0.31273    0.25098    0.97192   1.00
H1       0.23765    0.18848    1.02685   1.00
H1       0.31125    0.25137    0.89968   1.00
H1       0.23875    0.18814    1.09895   1.00
H1       0.18606    0.24931    0.90179   1.00
H1       0.26311    0.31053    1.10043   1.00
C5       0.26324    0.32368    1.02239   1.00
H1       0.18727    0.24919    0.97401   1.00
H2       0.27224    0.34656    1.04354   1.00
H2       0.28747    0.32089    1.00103   1.00
N1       0.22742    0.33641    1.00292   1.00
C6       0.19272    0.34303    1.02012   1.00
C6       0.22327    0.34402    0.96460   1.00
C6       0.16595    0.35465    0.99243   1.00
C6       0.18538    0.35526    0.95711   1.00
H3       0.18702    0.33940    1.05099   1.00
H3       0.24624    0.34112    0.94309   1.00
H3       0.13565    0.36190    0.99741   1.00
H3       0.17327    0.36300    0.92903   1.00
C4       0.24993    0.47915    0.75007   1.00
C4       0.25007    0.52085    0.74993   1.00
C3       0.25059    0.45708    0.78485   1.00
C3       0.21552    0.54225    0.74321   1.00
C3       0.24908    0.45816    0.71460   1.00
C3a      0.28489    0.54263    0.75708   1.00
C2       0.25029    0.39483    0.74852   1.00
C2       0.24941    0.60517    0.75135   1.00
C3       0.25078    0.41566    0.78402   1.00
C3       0.21526    0.58359    0.74394   1.00
C3       0.24943    0.41680    0.71386   1.00
C3       0.28398    0.58415    0.75780   1.00
H1       0.25098    0.47192    0.81273   1.00
H1       0.18848    0.52685    0.73765   1.00
H1       0.25137    0.39968    0.81125   1.00
H1       0.18814    0.59895    0.73875   1.00
H1       0.24931    0.40179    0.68606   1.00
H1       0.31053    0.60043    0.76311   1.00
C5       0.32368    0.52239    0.76324   1.00
H1       0.24919    0.47401    0.68727   1.00
H2       0.34656    0.54354    0.77224   1.00
H2       0.32089    0.50103    0.78747   1.00
N1       0.33641    0.50292    0.72742   1.00
C6       0.34303    0.52012    0.69272   1.00
C6       0.34402    0.46460    0.72327   1.00
C6       0.35465    0.49243    0.66595   1.00
C6       0.35526    0.45711    0.68538   1.00
H3       0.33940    0.55099    0.68702   1.00
H3       0.34112    0.44309    0.74624   1.00
H3       0.36190    0.49741    0.63565   1.00
H3       0.36300    0.42903    0.67327   1.00
C4       0.02085    0.25007    0.75007   1.00
C4       -0.02085   0.24993    0.74993   1.00
C3       0.04292    0.28485    0.74941   1.00
C3       -0.04225   0.24321    0.78448   1.00
C3       0.04184    0.21460    0.75092   1.00
C3a      -0.04263   0.25708    0.71511   1.00
C2       0.10517    0.24852    0.74971   1.00
C2       -0.10517   0.25135    0.75059   1.00
C3       0.08434    0.28402    0.74922   1.00
C3       -0.08359   0.24394    0.78474   1.00
C3       0.08320    0.21386    0.75057   1.00
C3       -0.08415   0.25780    0.71602   1.00
H1       0.02808    0.31273    0.74902   1.00
H1       -0.02685   0.23765    0.81152   1.00
H1       0.10032    0.31125    0.74863   1.00
H1       -0.09895   0.23875    0.81186   1.00
H1       0.09821    0.18606    0.75069   1.00
H1       -0.10043   0.26311    0.68947   1.00
C5       -0.02239   0.26324    0.67632   1.00
H1       0.02599    0.18727    0.75081   1.00
H2       -0.04354   0.27224    0.65344   1.00
H2       -0.00103   0.28747    0.67911   1.00
N1       -0.00292   0.22742    0.66359   1.00
C6       -0.02012   0.19272    0.65697   1.00
C6       0.03540    0.22327    0.65598   1.00
C6       0.00757    0.16595    0.64535   1.00
C6       0.04289    0.18538    0.64474   1.00
H3       -0.05099   0.18702    0.66060   1.00
H3       0.05691    0.24624    0.65888   1.00
H3       0.00259    0.13565    0.63810   1.00
H3       0.07097    0.17327    0.63700   1.00
C4       0.47915    0.25007    0.74993   1.00
C4       0.52085    0.24993    0.75007   1.00
C3       0.45708    0.28485    0.75059   1.00
C3       0.54225    0.24321    0.71552   1.00
C3       0.45816    0.21460    0.74908   1.00
C3a      0.54263    0.25708    0.78489   1.00
C2       0.39483    0.24852    0.75029   1.00
C2       0.60517    0.25135    0.74941   1.00
C3       0.41566    0.28402    0.75078   1.00
C3       0.58359    0.24394    0.71526   1.00
C3       0.41680    0.21386    0.74943   1.00
C3       0.58415    0.25780    0.78398   1.00
H1       0.47192    0.31273    0.75098   1.00
H1       0.52685    0.23765    0.68848   1.00
H1       0.39968    0.31125    0.75137   1.00
H1       0.59895    0.23875    0.68814   1.00
H1       0.40179    0.18606    0.74931   1.00
H1       0.60043    0.26311    0.81053   1.00
C5       0.52239    0.26324    0.82368   1.00
H1       0.47401    0.18727    0.74919   1.00
H2       0.54354    0.27224    0.84656   1.00
H2       0.50103    0.28747    0.82089   1.00
N1       0.50292    0.22742    0.83641   1.00
C6       0.52012    0.19272    0.84303   1.00
C6       0.46460    0.22327    0.84402   1.00
C6       0.49243    0.16595    0.85465   1.00
C6       0.45711    0.18538    0.85526   1.00
H3       0.55099    0.18702    0.83940   1.00
H3       0.44309    0.24624    0.84112   1.00
H3       0.49741    0.13565    0.86190   1.00
H3       0.42903    0.17327    0.86300   1.00
C4       0.25007    0.02085    0.75007   1.00
C4       0.24993    -0.02085   0.74993   1.00
C3       0.24941    0.04292    0.78485   1.00
C3       0.28448    -0.04225   0.74321   1.00
C3       0.25092    0.04184    0.71460   1.00
C3a      0.21511    -0.04263   0.75708   1.00
C2       0.24971    0.10517    0.74852   1.00
C2       0.25059    -0.10517   0.75135   1.00
C3       0.24922    0.08434    0.78402   1.00
C3       0.28474    -0.08359   0.74394   1.00
C3       0.25057    0.08320    0.71386   1.00
C3       0.21602    -0.08415   0.75780   1.00
H1       0.24902    0.02808    0.81273   1.00
H1       0.31152    -0.02685   0.73765   1.00
H1       0.24863    0.10032    0.81125   1.00
H1       0.31186    -0.09895   0.73875   1.00
H1       0.25069    0.09821    0.68606   1.00
H1       0.18947    -0.10043   0.76311   1.00
C5       0.17632    -0.02239   0.76324   1.00
H1       0.25081    0.02599    0.68727   1.00
H2       0.15344    -0.04354   0.77224   1.00
H2       0.17911    -0.00103   0.78747   1.00
N1       0.16359    -0.00292   0.72742   1.00
C6       0.15697    -0.02012   0.69272   1.00
C6       0.15598    0.03540    0.72327   1.00
C6       0.14535    0.00757    0.66595   1.00
C6       0.14474    0.04289    0.68538   1.00
H3       0.16060    -0.05099   0.68702   1.00
H3       0.15888    0.05691    0.74624   1.00
H3       0.13810    0.00259    0.63565   1.00
H3       0.13700    0.07097    0.67327   1.00
C4       0.25007    0.25007    0.52085   1.00
C4       0.24993    0.24993    0.47915   1.00
C3       0.28485    0.24941    0.54292   1.00
C3       0.24321    0.28448    0.45775   1.00
C3       0.21460    0.25092    0.54184   1.00
C3a      0.25708    0.21511    0.45737   1.00
C2       0.24852    0.24971    0.60517   1.00
C2       0.25135    0.25059    0.39483   1.00
C3       0.28402    0.24922    0.58434   1.00
C3       0.24394    0.28474    0.41641   1.00
C3       0.21386    0.25057    0.58320   1.00
C3       0.25780    0.21602    0.41585   1.00
H1       0.31273    0.24902    0.52808   1.00
H1       0.23765    0.31152    0.47315   1.00
H1       0.31125    0.24863    0.60032   1.00
H1       0.23875    0.31186    0.40105   1.00
H1       0.18606    0.25069    0.59821   1.00
H1       0.26311    0.18947    0.39957   1.00
C5       0.26324    0.17632    0.47761   1.00
H1       0.18727    0.25081    0.52599   1.00
H2       0.27224    0.15344    0.45646   1.00
H2       0.28747    0.17911    0.49897   1.00
N1       0.22742    0.16359    0.49708   1.00
C6       0.19272    0.15697    0.47988   1.00
C6       0.22327    0.15598    0.53540   1.00
C6       0.16595    0.14535    0.50757   1.00
C6       0.18538    0.14474    0.54289   1.00
H3       0.18702    0.16060    0.44901   1.00
H3       0.24624    0.15888    0.55691   1.00
H3       0.13565    0.13810    0.50259   1.00
H3       0.17327    0.13700    0.57097   1.00
C4       0.25007    0.74993    0.47915   1.00
C4       0.24993    0.75007    0.52085   1.00
C3       0.28485    0.75059    0.45708   1.00
C3       0.24321    0.71552    0.54225   1.00
C3       0.21460    0.74908    0.45816   1.00
C3a      0.25708    0.78489    0.54263   1.00
C2       0.24852    0.75029    0.39483   1.00
C2       0.25135    0.74941    0.60517   1.00
C3       0.28402    0.75078    0.41566   1.00
C3       0.24394    0.71526    0.58359   1.00
C3       0.21386    0.74943    0.41680   1.00
C3       0.25780    0.78398    0.58415   1.00
H1       0.31273    0.75098    0.47192   1.00
H1       0.23765    0.68848    0.52685   1.00
H1       0.31125    0.75137    0.39968   1.00
H1       0.23875    0.68814    0.59895   1.00
H1       0.18606    0.74931    0.40179   1.00
H1       0.26311    0.81053    0.60043   1.00
C5       0.26324    0.82368    0.52239   1.00
H1       0.18727    0.74919    0.47401   1.00
H2       0.27224    0.84656    0.54354   1.00
H2       0.28747    0.82089    0.50103   1.00
N1       0.22742    0.83641    0.50292   1.00
C6       0.19272    0.84303    0.52012   1.00
C6       0.22327    0.84402    0.46460   1.00
C6       0.16595    0.85465    0.49243   1.00
C6       0.18538    0.85526    0.45711   1.00
H3       0.18702    0.83940    0.55099   1.00
H3       0.24624    0.84112    0.44309   1.00
H3       0.13565    0.86190    0.49741   1.00
H3       0.17327    0.86300    0.42903   1.00
C4       0.24993    0.97915    0.25007   1.00
C4       0.25007    1.02085    0.24993   1.00
C3       0.25059    0.95708    0.28485   1.00
C3       0.21552    1.04225    0.24321   1.00
C3       0.24908    0.95816    0.21460   1.00
C3a      0.28489    1.04263    0.25708   1.00
C2       0.25029    0.89483    0.24852   1.00
C2       0.24941    1.10517    0.25135   1.00
C3       0.25078    0.91566    0.28402   1.00
C3       0.21526    1.08359    0.24394   1.00
C3       0.24943    0.91680    0.21386   1.00
C3       0.28398    1.08415    0.25780   1.00
H1       0.25098    0.97192    0.31273   1.00
H1       0.18848    1.02685    0.23765   1.00
H1       0.25137    0.89968    0.31125   1.00
H1       0.18814    1.09895    0.23875   1.00
H1       0.24931    0.90179    0.18606   1.00
H1       0.31053    1.10043    0.26311   1.00
C5       0.32368    1.02239    0.26324   1.00
H1       0.24919    0.97401    0.18727   1.00
H2       0.34656    1.04354    0.27224   1.00
H2       0.32089    1.00103    0.28747   1.00
N1       0.33641    1.00292    0.22742   1.00
C6       0.34303    1.02012    0.19272   1.00
C6       0.34402    0.96460    0.22327   1.00
C6       0.35465    0.99243    0.16595   1.00
C6       0.35526    0.95711    0.18538   1.00
H3       0.33940    1.05099    0.18702   1.00
H3       0.34112    0.94309    0.24624   1.00
H3       0.36190    0.99741    0.13565   1.00
H3       0.36300    0.92903    0.17327   1.00
C4       0.02085    0.75007    0.25007   1.00
C4       -0.02085   0.74993    0.24993   1.00
C3       0.04292    0.78485    0.24941   1.00
C3       -0.04225   0.74321    0.28448   1.00
C3       0.04184    0.71460    0.25092   1.00
C3a      -0.04263   0.75708    0.21511   1.00
C2       0.10517    0.74852    0.24971   1.00
C2       -0.10517   0.75135    0.25059   1.00
C3       0.08434    0.78402    0.24922   1.00
C3       -0.08359   0.74394    0.28474   1.00
C3       0.08320    0.71386    0.25057   1.00
C3       -0.08415   0.75780    0.21602   1.00
H1       0.02808    0.81273    0.24902   1.00
H1       -0.02685   0.73765    0.31152   1.00
H1       0.10032    0.81125    0.24863   1.00
H1       -0.09895   0.73875    0.31186   1.00
H1       0.09821    0.68606    0.25069   1.00
H1       -0.10043   0.76311    0.18947   1.00
C5       -0.02239   0.76324    0.17632   1.00
H1       0.02599    0.68727    0.25081   1.00
H2       -0.04354   0.77224    0.15344   1.00
H2       -0.00103   0.78747    0.17911   1.00
N1       -0.00292   0.72742    0.16359   1.00
C6       -0.02012   0.69272    0.15697   1.00
C6       0.03540    0.72327    0.15598   1.00
C6       0.00757    0.66595    0.14535   1.00
C6       0.04289    0.68538    0.14474   1.00
H3       -0.05099   0.68702    0.16060   1.00
H3       0.05691    0.74624    0.15888   1.00
H3       0.00259    0.63565    0.13810   1.00
H3       0.07097    0.67327    0.13700   1.00
C4       0.47915    0.75007    0.24993   1.00
C4       0.52085    0.74993    0.25007   1.00
C3       0.45708    0.78485    0.25059   1.00
C3       0.54225    0.74321    0.21552   1.00
C3       0.45816    0.71460    0.24908   1.00
C3a      0.54263    0.75708    0.28489   1.00
C2       0.39483    0.74852    0.25029   1.00
C2       0.60517    0.75135    0.24941   1.00
C3       0.41566    0.78402    0.25078   1.00
C3       0.58359    0.74394    0.21526   1.00
C3       0.41680    0.71386    0.24943   1.00
C3       0.58415    0.75780    0.28398   1.00
H1       0.47192    0.81273    0.25098   1.00
H1       0.52685    0.73765    0.18848   1.00
H1       0.39968    0.81125    0.25137   1.00
H1       0.59895    0.73875    0.18814   1.00
H1       0.40179    0.68606    0.24931   1.00
H1       0.60043    0.76311    0.31053   1.00
C5       0.52239    0.76324    0.32368   1.00
H1       0.47401    0.68727    0.24919   1.00
H2       0.54354    0.77224    0.34656   1.00
H2       0.50103    0.78747    0.32089   1.00
N1       0.50292    0.72742    0.33641   1.00
C6       0.52012    0.69272    0.34303   1.00
C6       0.46460    0.72327    0.34402   1.00
C6       0.49243    0.66595    0.35465   1.00
C6       0.45711    0.68538    0.35526   1.00
H3       0.55099    0.68702    0.33940   1.00
H3       0.44309    0.74624    0.34112   1.00
H3       0.49741    0.63565    0.36190   1.00
H3       0.42903    0.67327    0.36300   1.00
C4       0.25007    0.52085    0.25007   1.00
C4       0.24993    0.47915    0.24993   1.00
C3       0.24941    0.54292    0.28485   1.00
C3       0.28448    0.45775    0.24321   1.00
C3       0.25092    0.54184    0.21460   1.00
C3a      0.21511    0.45737    0.25708   1.00
C2       0.24971    0.60517    0.24852   1.00
C2       0.25059    0.39483    0.25135   1.00
C3       0.24922    0.58434    0.28402   1.00
C3       0.28474    0.41641    0.24394   1.00
C3       0.25057    0.58320    0.21386   1.00
C3       0.21602    0.41585    0.25780   1.00
H1       0.24902    0.52808    0.31273   1.00
H1       0.31152    0.47315    0.23765   1.00
H1       0.24863    0.60032    0.31125   1.00
H1       0.31186    0.40105    0.23875   1.00
H1       0.25069    0.59821    0.18606   1.00
H1       0.18947    0.39957    0.26311   1.00
C5       0.17632    0.47761    0.26324   1.00
H1       0.25081    0.52599    0.18727   1.00
H2       0.15344    0.45646    0.27224   1.00
H2       0.17911    0.49897    0.28747   1.00
N1       0.16359    0.49708    0.22742   1.00
C6       0.15697    0.47988    0.19272   1.00
C6       0.15598    0.53540    0.22327   1.00
C6       0.14535    0.50757    0.16595   1.00
C6       0.14474    0.54289    0.18538   1.00
H3       0.16060    0.44901    0.18702   1.00
H3       0.15888    0.55691    0.24624   1.00
H3       0.13810    0.50259    0.13565   1.00
H3       0.13700    0.57097    0.17327   1.00
C4       0.25007    0.75007    0.02085   1.00
C4       0.24993    0.74993    -0.02085   1.00
C3       0.28485    0.74941    0.04292   1.00
C3       0.24321    0.78448    -0.04225   1.00
C3       0.21460    0.75092    0.04184   1.00
C3a      0.25708    0.71511    -0.04263   1.00
C2       0.24852    0.74971    0.10517   1.00
C2       0.25135    0.75059    -0.10517   1.00
C3       0.28402    0.74922    0.08434   1.00
C3       0.24394    0.78474    -0.08359   1.00
C3       0.21386    0.75057    0.08320   1.00
C3       0.25780    0.71602    -0.08415   1.00
H1       0.31273    0.74902    0.02808   1.00
H1       0.23765    0.81152    -0.02685   1.00
H1       0.31125    0.74863    0.10032   1.00
H1       0.23875    0.81186    -0.09895   1.00
H1       0.18606    0.75069    0.09821   1.00
H1       0.26311    0.68947    -0.10043   1.00
C5       0.26324    0.67632    -0.02239   1.00
H1       0.18727    0.75081    0.02599   1.00
H2       0.27224    0.65344    -0.04354   1.00
H2       0.28747    0.67911    -0.00103   1.00
N1       0.22742    0.66359    -0.00292   1.00
C6       0.19272    0.65697    -0.02012   1.00
C6       0.22327    0.65598    0.03540   1.00
C6       0.16595    0.64535    0.00757   1.00
C6       0.18538    0.64474    0.04289   1.00
H3       0.18702    0.66060    -0.05099   1.00
H3       0.24624    0.65888    0.05691   1.00
H3       0.13565    0.63810    0.00259   1.00
H3       0.17327    0.63700    0.07097   1.00
C4       0.75007    0.24993    0.47915   1.00
C4       0.74993    0.25007    0.52085   1.00
C3       0.78485    0.25059    0.45708   1.00
C3       0.74321    0.21552    0.54225   1.00
C3       0.71460    0.24908    0.45816   1.00
C3a      0.75708    0.28489    0.54263   1.00
C2       0.74852    0.25029    0.39483   1.00
C2       0.75135    0.24941    0.60517   1.00
C3       0.78402    0.25078    0.41566   1.00
C3       0.74394    0.21526    0.58359   1.00
C3       0.71386    0.24943    0.41680   1.00
C3       0.75780    0.28398    0.58415   1.00
H1       0.81273    0.25098    0.47192   1.00
H1       0.73765    0.18848    0.52685   1.00
H1       0.81125    0.25137    0.39968   1.00
H1       0.73875    0.18814    0.59895   1.00
H1       0.68606    0.24931    0.40179   1.00
H1       0.76311    0.31053    0.60043   1.00
C5       0.76324    0.32368    0.52239   1.00
H1       0.68727    0.24919    0.47401   1.00
H2       0.77224    0.34656    0.54354   1.00
H2       0.78747    0.32089    0.50103   1.00
N1       0.72742    0.33641    0.50292   1.00
C6       0.69272    0.34303    0.52012   1.00
C6       0.72327    0.34402    0.46460   1.00
C6       0.66595    0.35465    0.49243   1.00
C6       0.68538    0.35526    0.45711   1.00
H3       0.68702    0.33940    0.55099   1.00
H3       0.74624    0.34112    0.44309   1.00
H3       0.63565    0.36190    0.49741   1.00
H3       0.67327    0.36300    0.42903   1.00
C4       0.74993    0.47915    0.25007   1.00
C4       0.75007    0.52085    0.24993   1.00
C3       0.75059    0.45708    0.28485   1.00
C3       0.71552    0.54225    0.24321   1.00
C3       0.74908    0.45816    0.21460   1.00
C3a      0.78489    0.54263    0.25708   1.00
C2       0.75029    0.39483    0.24852   1.00
C2       0.74941    0.60517    0.25135   1.00
C3       0.75078    0.41566    0.28402   1.00
C3       0.71526    0.58359    0.24394   1.00
C3       0.74943    0.41680    0.21386   1.00
C3       0.78398    0.58415    0.25780   1.00
H1       0.75098    0.47192    0.31273   1.00
H1       0.68848    0.52685    0.23765   1.00
H1       0.75137    0.39968    0.31125   1.00
H1       0.68814    0.59895    0.23875   1.00
H1       0.74931    0.40179    0.18606   1.00
H1       0.81053    0.60043    0.26311   1.00
C5       0.82368    0.52239    0.26324   1.00
H1       0.74919    0.47401    0.18727   1.00
H2       0.84656    0.54354    0.27224   1.00
H2       0.82089    0.50103    0.28747   1.00
N1       0.83641    0.50292    0.22742   1.00
C6       0.84303    0.52012    0.19272   1.00
C6       0.84402    0.46460    0.22327   1.00
C6       0.85465    0.49243    0.16595   1.00
C6       0.85526    0.45711    0.18538   1.00
H3       0.83940    0.55099    0.18702   1.00
H3       0.84112    0.44309    0.24624   1.00
H3       0.86190    0.49741    0.13565   1.00
H3       0.86300    0.42903    0.17327   1.00
C4       0.52085    0.25007    0.25007   1.00
C4       0.47915    0.24993    0.24993   1.00
C3       0.54292    0.28485    0.24941   1.00
C3       0.45775    0.24321    0.28448   1.00
C3       0.54184    0.21460    0.25092   1.00
C3a      0.45737    0.25708    0.21511   1.00
C2       0.60517    0.24852    0.24971   1.00
C2       0.39483    0.25135    0.25059   1.00
C3       0.58434    0.28402    0.24922   1.00
C3       0.41641    0.24394    0.28474   1.00
C3       0.58320    0.21386    0.25057   1.00
C3       0.41585    0.25780    0.21602   1.00
H1       0.52808    0.31273    0.24902   1.00
H1       0.47315    0.23765    0.31152   1.00
H1       0.60032    0.31125    0.24863   1.00
H1       0.40105    0.23875    0.31186   1.00
H1       0.59821    0.18606    0.25069   1.00
H1       0.39957    0.26311    0.18947   1.00
C5       0.47761    0.26324    0.17632   1.00
H1       0.52599    0.18727    0.25081   1.00
H2       0.45646    0.27224    0.15344   1.00
H2       0.49897    0.28747    0.17911   1.00
N1       0.49708    0.22742    0.16359   1.00
C6       0.47988    0.19272    0.15697   1.00
C6       0.53540    0.22327    0.15598   1.00
C6       0.50757    0.16595    0.14535   1.00
C6       0.54289    0.18538    0.14474   1.00
H3       0.44901    0.18702    0.16060   1.00
H3       0.55691    0.24624    0.15888   1.00
H3       0.50259    0.13565    0.13810   1.00
H3       0.57097    0.17327    0.13700   1.00
C4       0.97915    0.25007    0.24993   1.00
C4       1.02085    0.24993    0.25007   1.00
C3       0.95708    0.28485    0.25059   1.00
C3       1.04225    0.24321    0.21552   1.00
C3       0.95816    0.21460    0.24908   1.00
C3a      1.04263    0.25708    0.28489   1.00
C2       0.89483    0.24852    0.25029   1.00
C2       1.10517    0.25135    0.24941   1.00
C3       0.91566    0.28402    0.25078   1.00
C3       1.08359    0.24394    0.21526   1.00
C3       0.91680    0.21386    0.24943   1.00
C3       1.08415    0.25780    0.28398   1.00
H1       0.97192    0.31273    0.25098   1.00
H1       1.02685    0.23765    0.18848   1.00
H1       0.89968    0.31125    0.25137   1.00
H1       1.09895    0.23875    0.18814   1.00
H1       0.90179    0.18606    0.24931   1.00
H1       1.10043    0.26311    0.31053   1.00
C5       1.02239    0.26324    0.32368   1.00
H1       0.97401    0.18727    0.24919   1.00
H2       1.04354    0.27224    0.34656   1.00
H2       1.00103    0.28747    0.32089   1.00
N1       1.00292    0.22742    0.33641   1.00
C6       1.02012    0.19272    0.34303   1.00
C6       0.96460    0.22327    0.34402   1.00
C6       0.99243    0.16595    0.35465   1.00
C6       0.95711    0.18538    0.35526   1.00
H3       1.05099    0.18702    0.33940   1.00
H3       0.94309    0.24624    0.34112   1.00
H3       0.99741    0.13565    0.36190   1.00
H3       0.92903    0.17327    0.36300   1.00
C4       0.75007    0.02085    0.25007   1.00
C4       0.74993    -0.02085   0.24993   1.00
C3       0.74941    0.04292    0.28485   1.00
C3       0.78448    -0.04225   0.24321   1.00
C3       0.75092    0.04184    0.21460   1.00
C3a      0.71511    -0.04263   0.25708   1.00
C2       0.74971    0.10517    0.24852   1.00
C2       0.75059    -0.10517   0.25135   1.00
C3       0.74922    0.08434    0.28402   1.00
C3       0.78474    -0.08359   0.24394   1.00
C3       0.75057    0.08320    0.21386   1.00
C3       0.71602    -0.08415   0.25780   1.00
H1       0.74902    0.02808    0.31273   1.00
H1       0.81152    -0.02685   0.23765   1.00
H1       0.74863    0.10032    0.31125   1.00
H1       0.81186    -0.09895   0.23875   1.00
H1       0.75069    0.09821    0.18606   1.00
H1       0.68947    -0.10043   0.26311   1.00
C5       0.67632    -0.02239   0.26324   1.00
H1       0.75081    0.02599    0.18727   1.00
H2       0.65344    -0.04354   0.27224   1.00
H2       0.67911    -0.00103   0.28747   1.00
N1       0.66359    -0.00292   0.22742   1.00
C6       0.65697    -0.02012   0.19272   1.00
C6       0.65598    0.03540    0.22327   1.00
C6       0.64535    0.00757    0.16595   1.00
C6       0.64474    0.04289    0.18538   1.00
H3       0.66060    -0.05099   0.18702   1.00
H3       0.65888    0.05691    0.24624   1.00
H3       0.63810    0.00259    0.13565   1.00
H3       0.63700    0.07097    0.17327   1.00
C4       0.75007    0.25007    0.02085   1.00
C4       0.74993    0.24993    -0.02085   1.00
C3       0.78485    0.24941    0.04292   1.00
C3       0.74321    0.28448    -0.04225   1.00
C3       0.71460    0.25092    0.04184   1.00
C3a      0.75708    0.21511    -0.04263   1.00
C2       0.74852    0.24971    0.10517   1.00
C2       0.75135    0.25059    -0.10517   1.00
C3       0.78402    0.24922    0.08434   1.00
C3       0.74394    0.28474    -0.08359   1.00
C3       0.71386    0.25057    0.08320   1.00
C3       0.75780    0.21602    -0.08415   1.00
H1       0.81273    0.24902    0.02808   1.00
H1       0.73765    0.31152    -0.02685   1.00
H1       0.81125    0.24863    0.10032   1.00
H1       0.73875    0.31186    -0.09895   1.00
H1       0.68606    0.25069    0.09821   1.00
H1       0.76311    0.18947    -0.10043   1.00
C5       0.76324    0.17632    -0.02239   1.00
H1       0.68727    0.25081    0.02599   1.00
H2       0.77224    0.15344    -0.04354   1.00
H2       0.78747    0.17911    -0.00103   1.00
N1       0.72742    0.16359    -0.00292   1.00
C6       0.69272    0.15697    -0.02012   1.00
C6       0.72327    0.15598    0.03540   1.00
C6       0.66595    0.14535    0.00757   1.00
C6       0.68538    0.14474    0.04289   1.00
H3       0.68702    0.16060    -0.05099   1.00
H3       0.74624    0.15888    0.05691   1.00
H3       0.63565    0.13810    0.00259   1.00
H3       0.67327    0.13700    0.07097   1.00
