data_IRMOF10_SG202_Ligand4_label_w.

_audit_creation_method             'generated by an auxiliary program of Tobunporous'

_symmetry_space_group_name_H-M     'P 1'
_symmetry_Int_Tables_number        1
_symmetry_cell_setting             triclinic

_cell_length_a                    34.2800
_cell_length_b                    34.2800
_cell_length_c                    34.2800
_cell_angle_alpha                 90.0000
_cell_angle_beta                  90.0000
_cell_angle_gamma                 90.0000

loop_
_atom_site_label
_atom_site_fract_x
_atom_site_fract_y
_atom_site_fract_z
_atom_site_occupancy
O1       0.75000    0.75000    0.75000   1.00
Zn1      0.71720    0.78280    0.78280   1.00
Zn1      0.78280    0.71720    0.78280   1.00
Zn1      0.78280    0.78280    0.71720   1.00
Zn1      0.71720    0.71720    0.71720   1.00
O2       0.72650    0.77350    0.83820   1.00
O2       0.72650    0.83820    0.77350   1.00
O2       0.66180    0.77350    0.77350   1.00
O2       0.77350    0.72650    0.83820   1.00
O2       0.83820    0.72650    0.77350   1.00
O2       0.77350    0.66180    0.77350   1.00
O2       0.77350    0.83820    0.72650   1.00
O2       0.83820    0.77350    0.72650   1.00
O2       0.77350    0.77350    0.66180   1.00
O2       0.66180    0.72650    0.72650   1.00
O2       0.72650    0.66180    0.72650   1.00
O2       0.72650    0.72650    0.66180   1.00
C1       0.75000    0.75000    0.85520   1.00
C1       0.75000    0.85520    0.75000   1.00
C1       0.64480    0.75000    0.75000   1.00
C1       0.85520    0.75000    0.75000   1.00
C1       0.75000    0.64480    0.75000   1.00
C1       0.75000    0.75000    0.64480   1.00
O1       0.25000    0.25000    0.75000   1.00
Zn1      0.21720    0.28280    0.78280   1.00
Zn1      0.28280    0.21720    0.78280   1.00
Zn1      0.28280    0.28280    0.71720   1.00
Zn1      0.21720    0.21720    0.71720   1.00
O2       0.22650    0.27350    0.83820   1.00
O2       0.22650    0.33820    0.77350   1.00
O2       0.16180    0.27350    0.77350   1.00
O2       0.27350    0.22650    0.83820   1.00
O2       0.33820    0.22650    0.77350   1.00
O2       0.27350    0.16180    0.77350   1.00
O2       0.27350    0.33820    0.72650   1.00
O2       0.33820    0.27350    0.72650   1.00
O2       0.27350    0.27350    0.66180   1.00
O2       0.16180    0.22650    0.72650   1.00
O2       0.22650    0.16180    0.72650   1.00
O2       0.22650    0.22650    0.66180   1.00
C1       0.25000    0.25000    0.85520   1.00
C1       0.25000    0.35520    0.75000   1.00
C1       0.14480    0.25000    0.75000   1.00
C1       0.35520    0.25000    0.75000   1.00
C1       0.25000    0.14480    0.75000   1.00
C1       0.25000    0.25000    0.64480   1.00
O1       0.25000    0.75000    0.25000   1.00
Zn1      0.21720    0.78280    0.28280   1.00
Zn1      0.28280    0.71720    0.28280   1.00
Zn1      0.28280    0.78280    0.21720   1.00
Zn1      0.21720    0.71720    0.21720   1.00
O2       0.22650    0.77350    0.33820   1.00
O2       0.22650    0.83820    0.27350   1.00
O2       0.16180    0.77350    0.27350   1.00
O2       0.27350    0.72650    0.33820   1.00
O2       0.33820    0.72650    0.27350   1.00
O2       0.27350    0.66180    0.27350   1.00
O2       0.27350    0.83820    0.22650   1.00
O2       0.33820    0.77350    0.22650   1.00
O2       0.27350    0.77350    0.16180   1.00
O2       0.16180    0.72650    0.22650   1.00
O2       0.22650    0.66180    0.22650   1.00
O2       0.22650    0.72650    0.16180   1.00
C1       0.25000    0.75000    0.35520   1.00
C1       0.25000    0.85520    0.25000   1.00
C1       0.14480    0.75000    0.25000   1.00
C1       0.35520    0.75000    0.25000   1.00
C1       0.25000    0.64480    0.25000   1.00
C1       0.25000    0.75000    0.14480   1.00
O1       0.75000    0.25000    0.25000   1.00
Zn1      0.71720    0.28280    0.28280   1.00
Zn1      0.78280    0.21720    0.28280   1.00
Zn1      0.78280    0.28280    0.21720   1.00
Zn1      0.71720    0.21720    0.21720   1.00
O2       0.72650    0.27350    0.33820   1.00
O2       0.72650    0.33820    0.27350   1.00
O2       0.66180    0.27350    0.27350   1.00
O2       0.77350    0.22650    0.33820   1.00
O2       0.83820    0.22650    0.27350   1.00
O2       0.77350    0.16180    0.27350   1.00
O2       0.77350    0.33820    0.22650   1.00
O2       0.83820    0.27350    0.22650   1.00
O2       0.77350    0.27350    0.16180   1.00
O2       0.66180    0.22650    0.22650   1.00
O2       0.72650    0.16180    0.22650   1.00
O2       0.72650    0.22650    0.16180   1.00
C1       0.75000    0.25000    0.35520   1.00
C1       0.75000    0.35520    0.25000   1.00
C1       0.64480    0.25000    0.25000   1.00
C1       0.85520    0.25000    0.25000   1.00
C1       0.75000    0.14480    0.25000   1.00
C1       0.75000    0.25000    0.14480   1.00
O1       0.25000    0.25000    0.25000   1.00
Zn1      0.28280    0.21720    0.21720   1.00
Zn1      0.21720    0.28280    0.21720   1.00
Zn1      0.21720    0.21720    0.28280   1.00
Zn1      0.28280    0.28280    0.28280   1.00
O2       0.27350    0.22650    0.16180   1.00
O2       0.27350    0.16180    0.22650   1.00
O2       0.33820    0.22650    0.22650   1.00
O2       0.22650    0.27350    0.16180   1.00
O2       0.16180    0.27350    0.22650   1.00
O2       0.22650    0.33820    0.22650   1.00
O2       0.22650    0.16180    0.27350   1.00
O2       0.16180    0.22650    0.27350   1.00
O2       0.22650    0.22650    0.33820   1.00
O2       0.33820    0.27350    0.27350   1.00
O2       0.27350    0.33820    0.27350   1.00
O2       0.27350    0.27350    0.33820   1.00
C1       0.25000    0.25000    0.14480   1.00
C1       0.25000    0.14480    0.25000   1.00
C1       0.35520    0.25000    0.25000   1.00
C1       0.14480    0.25000    0.25000   1.00
C1       0.25000    0.35520    0.25000   1.00
C1       0.25000    0.25000    0.35520   1.00
O1       0.75000    0.75000    0.25000   1.00
Zn1      0.78280    0.71720    0.21720   1.00
Zn1      0.71720    0.78280    0.21720   1.00
Zn1      0.71720    0.71720    0.28280   1.00
Zn1      0.78280    0.78280    0.28280   1.00
O2       0.77350    0.72650    0.16180   1.00
O2       0.77350    0.66180    0.22650   1.00
O2       0.83820    0.72650    0.22650   1.00
O2       0.72650    0.77350    0.16180   1.00
O2       0.66180    0.77350    0.22650   1.00
O2       0.72650    0.83820    0.22650   1.00
O2       0.72650    0.66180    0.27350   1.00
O2       0.66180    0.72650    0.27350   1.00
O2       0.72650    0.72650    0.33820   1.00
O2       0.83820    0.77350    0.27350   1.00
O2       0.77350    0.83820    0.27350   1.00
O2       0.77350    0.77350    0.33820   1.00
C1       0.75000    0.75000    0.14480   1.00
C1       0.75000    0.64480    0.25000   1.00
C1       0.85520    0.75000    0.25000   1.00
C1       0.64480    0.75000    0.25000   1.00
C1       0.75000    0.85520    0.25000   1.00
C1       0.75000    0.75000    0.35520   1.00
O1       0.75000    0.25000    0.75000   1.00
Zn1      0.78280    0.21720    0.71720   1.00
Zn1      0.71720    0.28280    0.71720   1.00
Zn1      0.71720    0.21720    0.78280   1.00
Zn1      0.78280    0.28280    0.78280   1.00
O2       0.77350    0.22650    0.66180   1.00
O2       0.77350    0.16180    0.72650   1.00
O2       0.83820    0.22650    0.72650   1.00
O2       0.72650    0.27350    0.66180   1.00
O2       0.66180    0.27350    0.72650   1.00
O2       0.72650    0.33820    0.72650   1.00
O2       0.72650    0.16180    0.77350   1.00
O2       0.66180    0.22650    0.77350   1.00
O2       0.72650    0.22650    0.83820   1.00
O2       0.83820    0.27350    0.77350   1.00
O2       0.77350    0.33820    0.77350   1.00
O2       0.77350    0.27350    0.83820   1.00
C1       0.75000    0.25000    0.64480   1.00
C1       0.75000    0.14480    0.75000   1.00
C1       0.85520    0.25000    0.75000   1.00
C1       0.64480    0.25000    0.75000   1.00
C1       0.75000    0.35520    0.75000   1.00
C1       0.75000    0.25000    0.85520   1.00
O1       0.25000    0.75000    0.75000   1.00
Zn1      0.28280    0.71720    0.71720   1.00
Zn1      0.21720    0.78280    0.71720   1.00
Zn1      0.21720    0.71720    0.78280   1.00
Zn1      0.28280    0.78280    0.78280   1.00
O2       0.27350    0.72650    0.66180   1.00
O2       0.27350    0.66180    0.72650   1.00
O2       0.33820    0.72650    0.72650   1.00
O2       0.22650    0.77350    0.66180   1.00
O2       0.16180    0.77350    0.72650   1.00
O2       0.22650    0.83820    0.72650   1.00
O2       0.22650    0.66180    0.77350   1.00
O2       0.16180    0.72650    0.77350   1.00
O2       0.22650    0.72650    0.83820   1.00
O2       0.33820    0.77350    0.77350   1.00
O2       0.27350    0.83820    0.77350   1.00
O2       0.27350    0.77350    0.83820   1.00
C1       0.25000    0.75000    0.64480   1.00
C1       0.25000    0.64480    0.75000   1.00
C1       0.35520    0.75000    0.75000   1.00
C1       0.14480    0.75000    0.75000   1.00
C1       0.25000    0.85520    0.75000   1.00
C1       0.25000    0.75000    0.85520   1.00
C4       0.75465    0.75114    0.98025   1.00
C4       0.75585    0.75015    1.02191   1.00
C3       0.74856    0.78634    0.95897   1.00
C3       0.75514    0.78469    1.04504   1.00
C3       0.75964    0.71585    0.95854   1.00
C3       0.75788    0.71347    1.04170   1.00
C2       0.75415    0.75349    0.89595   1.00
C2       0.75632    0.74811    1.10622   1.00
C3       0.74849    0.78759    0.91811   1.00
C3       0.75517    0.78378    1.08591   1.00
C3       0.75960    0.71841    0.91696   1.00
C3       0.75764    0.71379    1.08336   1.00
H1       0.74354    0.81233    0.97237   1.00
H1       0.75497    0.81184    1.03306   1.00
C5       0.76426    0.67927    0.97835   1.00
C5       0.76032    0.67778    1.01998   1.00
H1       0.74410    0.81393    0.90451   1.00
H1       0.75447    0.80972    1.10091   1.00
H1       0.76332    0.69399    0.90052   1.00
H1       0.75879    0.68829    1.09848   1.00
C6       0.77365    0.64286    0.95515   1.00
C6       0.75826    0.63907    1.04119   1.00
H2       0.79583    0.64980    0.93345   1.00
H2       0.73526    0.64045    1.06310   1.00
H2       0.78858    0.62119    0.97286   1.00
H2       0.74770    0.61589    1.02228   1.00
C6       0.73679    0.62363    0.93606   1.00
C6       0.79824    0.62635    1.05942   1.00
H2       0.71854    0.64626    0.92292   1.00
H2       0.81184    0.65135    1.07383   1.00
C6       0.74376    0.59126    0.90459   1.00
C6       0.79781    0.59163    1.08911   1.00
H2       0.71912    0.61116    0.95949   1.00
H2       0.81786    0.61877    1.03546   1.00
C6       0.76327    0.60806    0.86735   1.00
C6       0.77561    0.60236    1.12708   1.00
C6       0.76908    0.55747    0.92074   1.00
C6       0.77941    0.55448    1.07107   1.00
C6       0.70363    0.57408    0.89245   1.00
C6       0.84057    0.58191    1.10054   1.00
H2       0.74642    0.63242    0.85558   1.00
H2       0.78750    0.62886    1.14020   1.00
H2       0.79268    0.61851    0.87330   1.00
H2       0.74471    0.60723    1.12154   1.00
H2       0.76553    0.58590    0.84459   1.00
H2       0.77779    0.57902    1.14863   1.00
H2       0.77144    0.53381    0.89955   1.00
H2       0.78178    0.52973    1.09098   1.00
H2       0.79858    0.56744    0.92725   1.00
H2       0.74851    0.55890    1.06494   1.00
H2       0.75641    0.54565    0.94745   1.00
H2       0.79398    0.54676    1.04385   1.00
H2       0.68471    0.59672    0.88042   1.00
H2       0.85482    0.60712    1.11383   1.00
H2       0.70695    0.55146    0.87025   1.00
H2       0.84178    0.55794    1.12149   1.00
H2       0.68872    0.56104    0.91739   1.00
H2       0.85758    0.57332    1.07502   1.00
C4       0.75114    0.98025    0.75465   1.00
C4       0.75015    1.02191    0.75585   1.00
C3       0.78634    0.95897    0.74856   1.00
C3       0.78469    1.04504    0.75514   1.00
C3       0.71585    0.95854    0.75964   1.00
C3       0.71347    1.04170    0.75788   1.00
C2       0.75349    0.89595    0.75415   1.00
C2       0.74811    1.10622    0.75632   1.00
C3       0.78759    0.91811    0.74849   1.00
C3       0.78378    1.08591    0.75517   1.00
C3       0.71841    0.91696    0.75960   1.00
C3       0.71379    1.08336    0.75764   1.00
H1       0.81233    0.97237    0.74354   1.00
H1       0.81184    1.03306    0.75497   1.00
C5       0.67927    0.97835    0.76426   1.00
C5       0.67778    1.01998    0.76032   1.00
H1       0.81393    0.90451    0.74410   1.00
H1       0.80972    1.10091    0.75447   1.00
H1       0.69399    0.90052    0.76332   1.00
H1       0.68829    1.09848    0.75879   1.00
C6       0.64286    0.95515    0.77365   1.00
C6       0.63907    1.04119    0.75826   1.00
H2       0.64980    0.93345    0.79583   1.00
H2       0.64045    1.06310    0.73526   1.00
H2       0.62119    0.97286    0.78858   1.00
H2       0.61589    1.02228    0.74770   1.00
C6       0.62363    0.93606    0.73679   1.00
C6       0.62635    1.05942    0.79824   1.00
H2       0.64626    0.92292    0.71854   1.00
H2       0.65135    1.07383    0.81184   1.00
C6       0.59126    0.90459    0.74376   1.00
C6       0.59163    1.08911    0.79781   1.00
H2       0.61116    0.95949    0.71912   1.00
H2       0.61877    1.03546    0.81786   1.00
C6       0.60806    0.86735    0.76327   1.00
C6       0.60236    1.12708    0.77561   1.00
C6       0.55747    0.92074    0.76908   1.00
C6       0.55448    1.07107    0.77941   1.00
C6       0.57408    0.89245    0.70363   1.00
C6       0.58191    1.10054    0.84057   1.00
H2       0.63242    0.85558    0.74642   1.00
H2       0.62886    1.14020    0.78750   1.00
H2       0.61851    0.87330    0.79268   1.00
H2       0.60723    1.12154    0.74471   1.00
H2       0.58590    0.84459    0.76553   1.00
H2       0.57902    1.14863    0.77779   1.00
H2       0.53381    0.89955    0.77144   1.00
H2       0.52973    1.09098    0.78178   1.00
H2       0.56744    0.92725    0.79858   1.00
H2       0.55890    1.06494    0.74851   1.00
H2       0.54565    0.94745    0.75641   1.00
H2       0.54676    1.04385    0.79398   1.00
H2       0.59672    0.88042    0.68471   1.00
H2       0.60712    1.11383    0.85482   1.00
H2       0.55146    0.87025    0.70695   1.00
H2       0.55794    1.12149    0.84178   1.00
H2       0.56104    0.91739    0.68872   1.00
H2       0.57332    1.07502    0.85758   1.00
C4       0.51975    0.75465    0.74886   1.00
C4       0.47809    0.75585    0.74985   1.00
C3       0.54103    0.74856    0.71366   1.00
C3       0.45496    0.75514    0.71531   1.00
C3       0.54146    0.75964    0.78415   1.00
C3       0.45830    0.75788    0.78653   1.00
C2       0.60405    0.75415    0.74651   1.00
C2       0.39378    0.75632    0.75189   1.00
C3       0.58189    0.74849    0.71241   1.00
C3       0.41409    0.75517    0.71622   1.00
C3       0.58304    0.75960    0.78159   1.00
C3       0.41664    0.75764    0.78621   1.00
H1       0.52763    0.74354    0.68767   1.00
H1       0.46694    0.75497    0.68816   1.00
C5       0.52165    0.76426    0.82073   1.00
C5       0.48002    0.76032    0.82222   1.00
H1       0.59549    0.74410    0.68607   1.00
H1       0.39909    0.75447    0.69028   1.00
H1       0.59948    0.76332    0.80601   1.00
H1       0.40152    0.75879    0.81171   1.00
C6       0.54485    0.77365    0.85714   1.00
C6       0.45881    0.75826    0.86093   1.00
H2       0.56655    0.79583    0.85020   1.00
H2       0.43690    0.73526    0.85955   1.00
H2       0.52714    0.78858    0.87881   1.00
H2       0.47772    0.74770    0.88411   1.00
C6       0.56394    0.73679    0.87637   1.00
C6       0.44058    0.79824    0.87365   1.00
H2       0.57708    0.71854    0.85374   1.00
H2       0.42617    0.81184    0.84865   1.00
C6       0.59541    0.74376    0.90874   1.00
C6       0.41089    0.79781    0.90837   1.00
H2       0.54051    0.71912    0.88884   1.00
H2       0.46454    0.81786    0.88123   1.00
C6       0.63265    0.76327    0.89194   1.00
C6       0.37292    0.77561    0.89764   1.00
C6       0.57926    0.76908    0.94253   1.00
C6       0.42893    0.77941    0.94552   1.00
C6       0.60755    0.70363    0.92592   1.00
C6       0.39946    0.84057    0.91809   1.00
H2       0.64442    0.74642    0.86758   1.00
H2       0.35980    0.78750    0.87114   1.00
H2       0.62670    0.79268    0.88149   1.00
H2       0.37846    0.74471    0.89277   1.00
H2       0.65541    0.76553    0.91410   1.00
H2       0.35137    0.77779    0.92098   1.00
H2       0.60045    0.77144    0.96619   1.00
H2       0.40902    0.78178    0.97027   1.00
H2       0.57275    0.79858    0.93256   1.00
H2       0.43506    0.74851    0.94110   1.00
H2       0.55255    0.75641    0.95435   1.00
H2       0.45615    0.79398    0.95324   1.00
H2       0.61958    0.68471    0.90328   1.00
H2       0.38617    0.85482    0.89288   1.00
H2       0.62975    0.70695    0.94854   1.00
H2       0.37851    0.84178    0.94206   1.00
H2       0.58261    0.68872    0.93896   1.00
H2       0.42498    0.85758    0.92668   1.00
C4       0.98025    0.75465    0.75114   1.00
C4       1.02191    0.75585    0.75015   1.00
C3       0.95897    0.74856    0.78634   1.00
C3       1.04504    0.75514    0.78469   1.00
C3       0.95854    0.75964    0.71585   1.00
C3       1.04170    0.75788    0.71347   1.00
C2       0.89595    0.75415    0.75349   1.00
C2       1.10622    0.75632    0.74811   1.00
C3       0.91811    0.74849    0.78759   1.00
C3       1.08591    0.75517    0.78378   1.00
C3       0.91696    0.75960    0.71841   1.00
C3       1.08336    0.75764    0.71379   1.00
H1       0.97237    0.74354    0.81233   1.00
H1       1.03306    0.75497    0.81184   1.00
C5       0.97835    0.76426    0.67927   1.00
C5       1.01998    0.76032    0.67778   1.00
H1       0.90451    0.74410    0.81393   1.00
H1       1.10091    0.75447    0.80972   1.00
H1       0.90052    0.76332    0.69399   1.00
H1       1.09848    0.75879    0.68829   1.00
C6       0.95515    0.77365    0.64286   1.00
C6       1.04119    0.75826    0.63907   1.00
H2       0.93345    0.79583    0.64980   1.00
H2       1.06310    0.73526    0.64045   1.00
H2       0.97286    0.78858    0.62119   1.00
H2       1.02228    0.74770    0.61589   1.00
C6       0.93606    0.73679    0.62363   1.00
C6       1.05942    0.79824    0.62635   1.00
H2       0.92292    0.71854    0.64626   1.00
H2       1.07383    0.81184    0.65135   1.00
C6       0.90459    0.74376    0.59126   1.00
C6       1.08911    0.79781    0.59163   1.00
H2       0.95949    0.71912    0.61116   1.00
H2       1.03546    0.81786    0.61877   1.00
C6       0.86735    0.76327    0.60806   1.00
C6       1.12708    0.77561    0.60236   1.00
C6       0.92074    0.76908    0.55747   1.00
C6       1.07107    0.77941    0.55448   1.00
C6       0.89245    0.70363    0.57408   1.00
C6       1.10054    0.84057    0.58191   1.00
H2       0.85558    0.74642    0.63242   1.00
H2       1.14020    0.78750    0.62886   1.00
H2       0.87330    0.79268    0.61851   1.00
H2       1.12154    0.74471    0.60723   1.00
H2       0.84459    0.76553    0.58590   1.00
H2       1.14863    0.77779    0.57902   1.00
H2       0.89955    0.77144    0.53381   1.00
H2       1.09098    0.78178    0.52973   1.00
H2       0.92725    0.79858    0.56744   1.00
H2       1.06494    0.74851    0.55890   1.00
H2       0.94745    0.75641    0.54565   1.00
H2       1.04385    0.79398    0.54676   1.00
H2       0.88042    0.68471    0.59672   1.00
H2       1.11383    0.85482    0.60712   1.00
H2       0.87025    0.70695    0.55146   1.00
H2       1.12149    0.84178    0.55794   1.00
H2       0.91739    0.68872    0.56104   1.00
H2       1.07502    0.85758    0.57332   1.00
C4       0.74886    0.51975    0.75465   1.00
C4       0.74985    0.47809    0.75585   1.00
C3       0.71366    0.54103    0.74856   1.00
C3       0.71531    0.45496    0.75514   1.00
C3       0.78415    0.54146    0.75964   1.00
C3       0.78653    0.45830    0.75788   1.00
C2       0.74651    0.60405    0.75415   1.00
C2       0.75189    0.39378    0.75632   1.00
C3       0.71241    0.58189    0.74849   1.00
C3       0.71622    0.41409    0.75517   1.00
C3       0.78159    0.58304    0.75960   1.00
C3       0.78621    0.41664    0.75764   1.00
H1       0.68767    0.52763    0.74354   1.00
H1       0.68816    0.46694    0.75497   1.00
C5       0.82073    0.52165    0.76426   1.00
C5       0.82222    0.48002    0.76032   1.00
H1       0.68607    0.59549    0.74410   1.00
H1       0.69028    0.39909    0.75447   1.00
H1       0.80601    0.59948    0.76332   1.00
H1       0.81171    0.40152    0.75879   1.00
C6       0.85714    0.54485    0.77365   1.00
C6       0.86093    0.45881    0.75826   1.00
H2       0.85020    0.56655    0.79583   1.00
H2       0.85955    0.43690    0.73526   1.00
H2       0.87881    0.52714    0.78858   1.00
H2       0.88411    0.47772    0.74770   1.00
C6       0.87637    0.56394    0.73679   1.00
C6       0.87365    0.44058    0.79824   1.00
H2       0.85374    0.57708    0.71854   1.00
H2       0.84865    0.42617    0.81184   1.00
C6       0.90874    0.59541    0.74376   1.00
C6       0.90837    0.41089    0.79781   1.00
H2       0.88884    0.54051    0.71912   1.00
H2       0.88123    0.46454    0.81786   1.00
C6       0.89194    0.63265    0.76327   1.00
C6       0.89764    0.37292    0.77561   1.00
C6       0.94253    0.57926    0.76908   1.00
C6       0.94552    0.42893    0.77941   1.00
C6       0.92592    0.60755    0.70363   1.00
C6       0.91809    0.39946    0.84057   1.00
H2       0.86758    0.64442    0.74642   1.00
H2       0.87114    0.35980    0.78750   1.00
H2       0.88149    0.62670    0.79268   1.00
H2       0.89277    0.37846    0.74471   1.00
H2       0.91410    0.65541    0.76553   1.00
H2       0.92098    0.35137    0.77779   1.00
H2       0.96619    0.60045    0.77144   1.00
H2       0.97027    0.40902    0.78178   1.00
H2       0.93256    0.57275    0.79858   1.00
H2       0.94110    0.43506    0.74851   1.00
H2       0.95435    0.55255    0.75641   1.00
H2       0.95324    0.45615    0.79398   1.00
H2       0.90328    0.61958    0.68471   1.00
H2       0.89288    0.38617    0.85482   1.00
H2       0.94854    0.62975    0.70695   1.00
H2       0.94206    0.37851    0.84178   1.00
H2       0.93896    0.58261    0.68872   1.00
H2       0.92668    0.42498    0.85758   1.00
C4       0.75465    0.74886    0.51975   1.00
C4       0.75585    0.74985    0.47809   1.00
C3       0.74856    0.71366    0.54103   1.00
C3       0.75514    0.71531    0.45496   1.00
C3       0.75964    0.78415    0.54146   1.00
C3       0.75788    0.78653    0.45830   1.00
C2       0.75415    0.74651    0.60405   1.00
C2       0.75632    0.75189    0.39378   1.00
C3       0.74849    0.71241    0.58189   1.00
C3       0.75517    0.71622    0.41409   1.00
C3       0.75960    0.78159    0.58304   1.00
C3       0.75764    0.78621    0.41664   1.00
H1       0.74354    0.68767    0.52763   1.00
H1       0.75497    0.68816    0.46694   1.00
C5       0.76426    0.82073    0.52165   1.00
C5       0.76032    0.82222    0.48002   1.00
H1       0.74410    0.68607    0.59549   1.00
H1       0.75447    0.69028    0.39909   1.00
H1       0.76332    0.80601    0.59948   1.00
H1       0.75879    0.81171    0.40152   1.00
C6       0.77365    0.85714    0.54485   1.00
C6       0.75826    0.86093    0.45881   1.00
H2       0.79583    0.85020    0.56655   1.00
H2       0.73526    0.85955    0.43690   1.00
H2       0.78858    0.87881    0.52714   1.00
H2       0.74770    0.88411    0.47772   1.00
C6       0.73679    0.87637    0.56394   1.00
C6       0.79824    0.87365    0.44058   1.00
H2       0.71854    0.85374    0.57708   1.00
H2       0.81184    0.84865    0.42617   1.00
C6       0.74376    0.90874    0.59541   1.00
C6       0.79781    0.90837    0.41089   1.00
H2       0.71912    0.88884    0.54051   1.00
H2       0.81786    0.88123    0.46454   1.00
C6       0.76327    0.89194    0.63265   1.00
C6       0.77561    0.89764    0.37292   1.00
C6       0.76908    0.94253    0.57926   1.00
C6       0.77941    0.94552    0.42893   1.00
C6       0.70363    0.92592    0.60755   1.00
C6       0.84057    0.91809    0.39946   1.00
H2       0.74642    0.86758    0.64442   1.00
H2       0.78750    0.87114    0.35980   1.00
H2       0.79268    0.88149    0.62670   1.00
H2       0.74471    0.89277    0.37846   1.00
H2       0.76553    0.91410    0.65541   1.00
H2       0.77779    0.92098    0.35137   1.00
H2       0.77144    0.96619    0.60045   1.00
H2       0.78178    0.97027    0.40902   1.00
H2       0.79858    0.93256    0.57275   1.00
H2       0.74851    0.94110    0.43506   1.00
H2       0.75641    0.95435    0.55255   1.00
H2       0.79398    0.95324    0.45615   1.00
H2       0.68471    0.90328    0.61958   1.00
H2       0.85482    0.89288    0.38617   1.00
H2       0.70695    0.94854    0.62975   1.00
H2       0.84178    0.94206    0.37851   1.00
H2       0.68872    0.93896    0.58261   1.00
H2       0.85758    0.92668    0.42498   1.00
C4       0.25465    0.25114    0.98025   1.00
C4       0.25585    0.25015    1.02191   1.00
C3       0.24856    0.28634    0.95897   1.00
C3       0.25514    0.28469    1.04504   1.00
C3       0.25964    0.21585    0.95854   1.00
C3       0.25788    0.21347    1.04170   1.00
C2       0.25415    0.25349    0.89595   1.00
C2       0.25632    0.24811    1.10622   1.00
C3       0.24849    0.28759    0.91811   1.00
C3       0.25517    0.28378    1.08591   1.00
C3       0.25960    0.21841    0.91696   1.00
C3       0.25764    0.21379    1.08336   1.00
H1       0.24354    0.31233    0.97237   1.00
H1       0.25497    0.31184    1.03306   1.00
C5       0.26426    0.17927    0.97835   1.00
C5       0.26032    0.17778    1.01998   1.00
H1       0.24410    0.31393    0.90451   1.00
H1       0.25447    0.30972    1.10091   1.00
H1       0.26332    0.19399    0.90052   1.00
H1       0.25879    0.18829    1.09848   1.00
C6       0.27365    0.14286    0.95515   1.00
C6       0.25826    0.13907    1.04119   1.00
H2       0.29583    0.14980    0.93345   1.00
H2       0.23526    0.14045    1.06310   1.00
H2       0.28858    0.12119    0.97286   1.00
H2       0.24770    0.11589    1.02228   1.00
C6       0.23679    0.12363    0.93606   1.00
C6       0.29824    0.12635    1.05942   1.00
H2       0.21854    0.14626    0.92292   1.00
H2       0.31184    0.15135    1.07383   1.00
C6       0.24376    0.09126    0.90459   1.00
C6       0.29781    0.09163    1.08911   1.00
H2       0.21912    0.11116    0.95949   1.00
H2       0.31786    0.11877    1.03546   1.00
C6       0.26327    0.10806    0.86735   1.00
C6       0.27561    0.10236    1.12708   1.00
C6       0.26908    0.05747    0.92074   1.00
C6       0.27941    0.05448    1.07107   1.00
C6       0.20363    0.07408    0.89245   1.00
C6       0.34057    0.08191    1.10054   1.00
H2       0.24642    0.13242    0.85558   1.00
H2       0.28750    0.12886    1.14020   1.00
H2       0.29268    0.11851    0.87330   1.00
H2       0.24471    0.10723    1.12154   1.00
H2       0.26553    0.08590    0.84459   1.00
H2       0.27779    0.07902    1.14863   1.00
H2       0.27144    0.03381    0.89955   1.00
H2       0.28178    0.02973    1.09098   1.00
H2       0.29858    0.06744    0.92725   1.00
H2       0.24851    0.05890    1.06494   1.00
H2       0.25641    0.04565    0.94745   1.00
H2       0.29398    0.04676    1.04385   1.00
H2       0.18471    0.09672    0.88042   1.00
H2       0.35482    0.10712    1.11383   1.00
H2       0.20695    0.05146    0.87025   1.00
H2       0.34178    0.05794    1.12149   1.00
H2       0.18872    0.06104    0.91739   1.00
H2       0.35758    0.07332    1.07502   1.00
C4       0.25114    0.48025    0.75465   1.00
C4       0.25015    0.52191    0.75585   1.00
C3       0.28634    0.45897    0.74856   1.00
C3       0.28469    0.54504    0.75514   1.00
C3       0.21585    0.45854    0.75964   1.00
C3       0.21347    0.54170    0.75788   1.00
C2       0.25349    0.39595    0.75415   1.00
C2       0.24811    0.60622    0.75632   1.00
C3       0.28759    0.41811    0.74849   1.00
C3       0.28378    0.58591    0.75517   1.00
C3       0.21841    0.41696    0.75960   1.00
C3       0.21379    0.58336    0.75764   1.00
H1       0.31233    0.47237    0.74354   1.00
H1       0.31184    0.53306    0.75497   1.00
C5       0.17927    0.47835    0.76426   1.00
C5       0.17778    0.51998    0.76032   1.00
H1       0.31393    0.40451    0.74410   1.00
H1       0.30972    0.60091    0.75447   1.00
H1       0.19399    0.40052    0.76332   1.00
H1       0.18829    0.59848    0.75879   1.00
C6       0.14286    0.45515    0.77365   1.00
C6       0.13907    0.54119    0.75826   1.00
H2       0.14980    0.43345    0.79583   1.00
H2       0.14045    0.56310    0.73526   1.00
H2       0.12119    0.47286    0.78858   1.00
H2       0.11589    0.52228    0.74770   1.00
C6       0.12363    0.43606    0.73679   1.00
C6       0.12635    0.55942    0.79824   1.00
H2       0.14626    0.42292    0.71854   1.00
H2       0.15135    0.57383    0.81184   1.00
C6       0.09126    0.40459    0.74376   1.00
C6       0.09163    0.58911    0.79781   1.00
H2       0.11116    0.45949    0.71912   1.00
H2       0.11877    0.53546    0.81786   1.00
C6       0.10806    0.36735    0.76327   1.00
C6       0.10236    0.62708    0.77561   1.00
C6       0.05747    0.42074    0.76908   1.00
C6       0.05448    0.57107    0.77941   1.00
C6       0.07408    0.39245    0.70363   1.00
C6       0.08191    0.60054    0.84057   1.00
H2       0.13242    0.35558    0.74642   1.00
H2       0.12886    0.64020    0.78750   1.00
H2       0.11851    0.37330    0.79268   1.00
H2       0.10723    0.62154    0.74471   1.00
H2       0.08590    0.34459    0.76553   1.00
H2       0.07902    0.64863    0.77779   1.00
H2       0.03381    0.39955    0.77144   1.00
H2       0.02973    0.59098    0.78178   1.00
H2       0.06744    0.42725    0.79858   1.00
H2       0.05890    0.56494    0.74851   1.00
H2       0.04565    0.44745    0.75641   1.00
H2       0.04676    0.54385    0.79398   1.00
H2       0.09672    0.38042    0.68471   1.00
H2       0.10712    0.61383    0.85482   1.00
H2       0.05146    0.37025    0.70695   1.00
H2       0.05794    0.62149    0.84178   1.00
H2       0.06104    0.41739    0.68872   1.00
H2       0.07332    0.57502    0.85758   1.00
C4       0.01975    0.25465    0.74886   1.00
C4       -0.02191   0.25585    0.74985   1.00
C3       0.04103    0.24856    0.71366   1.00
C3       -0.04504   0.25514    0.71531   1.00
C3       0.04146    0.25964    0.78415   1.00
C3       -0.04170   0.25788    0.78653   1.00
C2       0.10405    0.25415    0.74651   1.00
C2       -0.10622   0.25632    0.75189   1.00
C3       0.08189    0.24849    0.71241   1.00
C3       -0.08591   0.25517    0.71622   1.00
C3       0.08304    0.25960    0.78159   1.00
C3       -0.08336   0.25764    0.78621   1.00
H1       0.02763    0.24354    0.68767   1.00
H1       -0.03306   0.25497    0.68816   1.00
C5       0.02165    0.26426    0.82073   1.00
C5       -0.01998   0.26032    0.82222   1.00
H1       0.09549    0.24410    0.68607   1.00
H1       -0.10091   0.25447    0.69028   1.00
H1       0.09948    0.26332    0.80601   1.00
H1       -0.09848   0.25879    0.81171   1.00
C6       0.04485    0.27365    0.85714   1.00
C6       -0.04119   0.25826    0.86093   1.00
H2       0.06655    0.29583    0.85020   1.00
H2       -0.06310   0.23526    0.85955   1.00
H2       0.02714    0.28858    0.87881   1.00
H2       -0.02228   0.24770    0.88411   1.00
C6       0.06394    0.23679    0.87637   1.00
C6       -0.05942   0.29824    0.87365   1.00
H2       0.07708    0.21854    0.85374   1.00
H2       -0.07383   0.31184    0.84865   1.00
C6       0.09541    0.24376    0.90874   1.00
C6       -0.08911   0.29781    0.90837   1.00
H2       0.04051    0.21912    0.88884   1.00
H2       -0.03546   0.31786    0.88123   1.00
C6       0.13265    0.26327    0.89194   1.00
C6       -0.12708   0.27561    0.89764   1.00
C6       0.07926    0.26908    0.94253   1.00
C6       -0.07107   0.27941    0.94552   1.00
C6       0.10755    0.20363    0.92592   1.00
C6       -0.10054   0.34057    0.91809   1.00
H2       0.14442    0.24642    0.86758   1.00
H2       -0.14020   0.28750    0.87114   1.00
H2       0.12670    0.29268    0.88149   1.00
H2       -0.12154   0.24471    0.89277   1.00
H2       0.15541    0.26553    0.91410   1.00
H2       -0.14863   0.27779    0.92098   1.00
H2       0.10045    0.27144    0.96619   1.00
H2       -0.09098   0.28178    0.97027   1.00
H2       0.07275    0.29858    0.93256   1.00
H2       -0.06494   0.24851    0.94110   1.00
H2       0.05255    0.25641    0.95435   1.00
H2       -0.04385   0.29398    0.95324   1.00
H2       0.11958    0.18471    0.90328   1.00
H2       -0.11383   0.35482    0.89288   1.00
H2       0.12975    0.20695    0.94854   1.00
H2       -0.12149   0.34178    0.94206   1.00
H2       0.08261    0.18872    0.93896   1.00
H2       -0.07502   0.35758    0.92668   1.00
C4       0.48025    0.25465    0.75114   1.00
C4       0.52191    0.25585    0.75015   1.00
C3       0.45897    0.24856    0.78634   1.00
C3       0.54504    0.25514    0.78469   1.00
C3       0.45854    0.25964    0.71585   1.00
C3       0.54170    0.25788    0.71347   1.00
C2       0.39595    0.25415    0.75349   1.00
C2       0.60622    0.25632    0.74811   1.00
C3       0.41811    0.24849    0.78759   1.00
C3       0.58591    0.25517    0.78378   1.00
C3       0.41696    0.25960    0.71841   1.00
C3       0.58336    0.25764    0.71379   1.00
H1       0.47237    0.24354    0.81233   1.00
H1       0.53306    0.25497    0.81184   1.00
C5       0.47835    0.26426    0.67927   1.00
C5       0.51998    0.26032    0.67778   1.00
H1       0.40451    0.24410    0.81393   1.00
H1       0.60091    0.25447    0.80972   1.00
H1       0.40052    0.26332    0.69399   1.00
H1       0.59848    0.25879    0.68829   1.00
C6       0.45515    0.27365    0.64286   1.00
C6       0.54119    0.25826    0.63907   1.00
H2       0.43345    0.29583    0.64980   1.00
H2       0.56310    0.23526    0.64045   1.00
H2       0.47286    0.28858    0.62119   1.00
H2       0.52228    0.24770    0.61589   1.00
C6       0.43606    0.23679    0.62363   1.00
C6       0.55942    0.29824    0.62635   1.00
H2       0.42292    0.21854    0.64626   1.00
H2       0.57383    0.31184    0.65135   1.00
C6       0.40459    0.24376    0.59126   1.00
C6       0.58911    0.29781    0.59163   1.00
H2       0.45949    0.21912    0.61116   1.00
H2       0.53546    0.31786    0.61877   1.00
C6       0.36735    0.26327    0.60806   1.00
C6       0.62708    0.27561    0.60236   1.00
C6       0.42074    0.26908    0.55747   1.00
C6       0.57107    0.27941    0.55448   1.00
C6       0.39245    0.20363    0.57408   1.00
C6       0.60054    0.34057    0.58191   1.00
H2       0.35558    0.24642    0.63242   1.00
H2       0.64020    0.28750    0.62886   1.00
H2       0.37330    0.29268    0.61851   1.00
H2       0.62154    0.24471    0.60723   1.00
H2       0.34459    0.26553    0.58590   1.00
H2       0.64863    0.27779    0.57902   1.00
H2       0.39955    0.27144    0.53381   1.00
H2       0.59098    0.28178    0.52973   1.00
H2       0.42725    0.29858    0.56744   1.00
H2       0.56494    0.24851    0.55890   1.00
H2       0.44745    0.25641    0.54565   1.00
H2       0.54385    0.29398    0.54676   1.00
H2       0.38042    0.18471    0.59672   1.00
H2       0.61383    0.35482    0.60712   1.00
H2       0.37025    0.20695    0.55146   1.00
H2       0.62149    0.34178    0.55794   1.00
H2       0.41739    0.18872    0.56104   1.00
H2       0.57502    0.35758    0.57332   1.00
C4       0.24886    0.01975    0.75465   1.00
C4       0.24985    -0.02191   0.75585   1.00
C3       0.21366    0.04103    0.74856   1.00
C3       0.21531    -0.04504   0.75514   1.00
C3       0.28415    0.04146    0.75964   1.00
C3       0.28653    -0.04170   0.75788   1.00
C2       0.24651    0.10405    0.75415   1.00
C2       0.25189    -0.10622   0.75632   1.00
C3       0.21241    0.08189    0.74849   1.00
C3       0.21622    -0.08591   0.75517   1.00
C3       0.28159    0.08304    0.75960   1.00
C3       0.28621    -0.08336   0.75764   1.00
H1       0.18767    0.02763    0.74354   1.00
H1       0.18816    -0.03306   0.75497   1.00
C5       0.32073    0.02165    0.76426   1.00
C5       0.32222    -0.01998   0.76032   1.00
H1       0.18607    0.09549    0.74410   1.00
H1       0.19028    -0.10091   0.75447   1.00
H1       0.30601    0.09948    0.76332   1.00
H1       0.31171    -0.09848   0.75879   1.00
C6       0.35714    0.04485    0.77365   1.00
C6       0.36093    -0.04119   0.75826   1.00
H2       0.35020    0.06655    0.79583   1.00
H2       0.35955    -0.06310   0.73526   1.00
H2       0.37881    0.02714    0.78858   1.00
H2       0.38411    -0.02228   0.74770   1.00
C6       0.37637    0.06394    0.73679   1.00
C6       0.37365    -0.05942   0.79824   1.00
H2       0.35374    0.07708    0.71854   1.00
H2       0.34865    -0.07383   0.81184   1.00
C6       0.40874    0.09541    0.74376   1.00
C6       0.40837    -0.08911   0.79781   1.00
H2       0.38884    0.04051    0.71912   1.00
H2       0.38123    -0.03546   0.81786   1.00
C6       0.39194    0.13265    0.76327   1.00
C6       0.39764    -0.12708   0.77561   1.00
C6       0.44253    0.07926    0.76908   1.00
C6       0.44552    -0.07107   0.77941   1.00
C6       0.42592    0.10755    0.70363   1.00
C6       0.41809    -0.10054   0.84057   1.00
H2       0.36758    0.14442    0.74642   1.00
H2       0.37114    -0.14020   0.78750   1.00
H2       0.38149    0.12670    0.79268   1.00
H2       0.39277    -0.12154   0.74471   1.00
H2       0.41410    0.15541    0.76553   1.00
H2       0.42098    -0.14863   0.77779   1.00
H2       0.46619    0.10045    0.77144   1.00
H2       0.47027    -0.09098   0.78178   1.00
H2       0.43256    0.07275    0.79858   1.00
H2       0.44110    -0.06494   0.74851   1.00
H2       0.45435    0.05255    0.75641   1.00
H2       0.45324    -0.04385   0.79398   1.00
H2       0.40328    0.11958    0.68471   1.00
H2       0.39288    -0.11383   0.85482   1.00
H2       0.44854    0.12975    0.70695   1.00
H2       0.44206    -0.12149   0.84178   1.00
H2       0.43896    0.08261    0.68872   1.00
H2       0.42668    -0.07502   0.85758   1.00
C4       0.25465    0.24886    0.51975   1.00
C4       0.25585    0.24985    0.47809   1.00
C3       0.24856    0.21366    0.54103   1.00
C3       0.25514    0.21531    0.45496   1.00
C3       0.25964    0.28415    0.54146   1.00
C3       0.25788    0.28653    0.45830   1.00
C2       0.25415    0.24651    0.60405   1.00
C2       0.25632    0.25189    0.39378   1.00
C3       0.24849    0.21241    0.58189   1.00
C3       0.25517    0.21622    0.41409   1.00
C3       0.25960    0.28159    0.58304   1.00
C3       0.25764    0.28621    0.41664   1.00
H1       0.24354    0.18767    0.52763   1.00
H1       0.25497    0.18816    0.46694   1.00
C5       0.26426    0.32073    0.52165   1.00
C5       0.26032    0.32222    0.48002   1.00
H1       0.24410    0.18607    0.59549   1.00
H1       0.25447    0.19028    0.39909   1.00
H1       0.26332    0.30601    0.59948   1.00
H1       0.25879    0.31171    0.40152   1.00
C6       0.27365    0.35714    0.54485   1.00
C6       0.25826    0.36093    0.45881   1.00
H2       0.29583    0.35020    0.56655   1.00
H2       0.23526    0.35955    0.43690   1.00
H2       0.28858    0.37881    0.52714   1.00
H2       0.24770    0.38411    0.47772   1.00
C6       0.23679    0.37637    0.56394   1.00
C6       0.29824    0.37365    0.44058   1.00
H2       0.21854    0.35374    0.57708   1.00
H2       0.31184    0.34865    0.42617   1.00
C6       0.24376    0.40874    0.59541   1.00
C6       0.29781    0.40837    0.41089   1.00
H2       0.21912    0.38884    0.54051   1.00
H2       0.31786    0.38123    0.46454   1.00
C6       0.26327    0.39194    0.63265   1.00
C6       0.27561    0.39764    0.37292   1.00
C6       0.26908    0.44253    0.57926   1.00
C6       0.27941    0.44552    0.42893   1.00
C6       0.20363    0.42592    0.60755   1.00
C6       0.34057    0.41809    0.39946   1.00
H2       0.24642    0.36758    0.64442   1.00
H2       0.28750    0.37114    0.35980   1.00
H2       0.29268    0.38149    0.62670   1.00
H2       0.24471    0.39277    0.37846   1.00
H2       0.26553    0.41410    0.65541   1.00
H2       0.27779    0.42098    0.35137   1.00
H2       0.27144    0.46619    0.60045   1.00
H2       0.28178    0.47027    0.40902   1.00
H2       0.29858    0.43256    0.57275   1.00
H2       0.24851    0.44110    0.43506   1.00
H2       0.25641    0.45435    0.55255   1.00
H2       0.29398    0.45324    0.45615   1.00
H2       0.18471    0.40328    0.61958   1.00
H2       0.35482    0.39288    0.38617   1.00
H2       0.20695    0.44854    0.62975   1.00
H2       0.34178    0.44206    0.37851   1.00
H2       0.18872    0.43896    0.58261   1.00
H2       0.35758    0.42668    0.42498   1.00
C4       0.25465    0.75114    0.48025   1.00
C4       0.25585    0.75015    0.52191   1.00
C3       0.24856    0.78634    0.45897   1.00
C3       0.25514    0.78469    0.54504   1.00
C3       0.25964    0.71585    0.45854   1.00
C3       0.25788    0.71347    0.54170   1.00
C2       0.25415    0.75349    0.39595   1.00
C2       0.25632    0.74811    0.60622   1.00
C3       0.24849    0.78759    0.41811   1.00
C3       0.25517    0.78378    0.58591   1.00
C3       0.25960    0.71841    0.41696   1.00
C3       0.25764    0.71379    0.58336   1.00
H1       0.24354    0.81233    0.47237   1.00
H1       0.25497    0.81184    0.53306   1.00
C5       0.26426    0.67927    0.47835   1.00
C5       0.26032    0.67778    0.51998   1.00
H1       0.24410    0.81393    0.40451   1.00
H1       0.25447    0.80972    0.60091   1.00
H1       0.26332    0.69399    0.40052   1.00
H1       0.25879    0.68829    0.59848   1.00
C6       0.27365    0.64286    0.45515   1.00
C6       0.25826    0.63907    0.54119   1.00
H2       0.29583    0.64980    0.43345   1.00
H2       0.23526    0.64045    0.56310   1.00
H2       0.28858    0.62119    0.47286   1.00
H2       0.24770    0.61589    0.52228   1.00
C6       0.23679    0.62363    0.43606   1.00
C6       0.29824    0.62635    0.55942   1.00
H2       0.21854    0.64626    0.42292   1.00
H2       0.31184    0.65135    0.57383   1.00
C6       0.24376    0.59126    0.40459   1.00
C6       0.29781    0.59163    0.58911   1.00
H2       0.21912    0.61116    0.45949   1.00
H2       0.31786    0.61877    0.53546   1.00
C6       0.26327    0.60806    0.36735   1.00
C6       0.27561    0.60236    0.62708   1.00
C6       0.26908    0.55747    0.42074   1.00
C6       0.27941    0.55448    0.57107   1.00
C6       0.20363    0.57408    0.39245   1.00
C6       0.34057    0.58191    0.60054   1.00
H2       0.24642    0.63242    0.35558   1.00
H2       0.28750    0.62886    0.64020   1.00
H2       0.29268    0.61851    0.37330   1.00
H2       0.24471    0.60723    0.62154   1.00
H2       0.26553    0.58590    0.34459   1.00
H2       0.27779    0.57902    0.64863   1.00
H2       0.27144    0.53381    0.39955   1.00
H2       0.28178    0.52973    0.59098   1.00
H2       0.29858    0.56744    0.42725   1.00
H2       0.24851    0.55890    0.56494   1.00
H2       0.25641    0.54565    0.44745   1.00
H2       0.29398    0.54676    0.54385   1.00
H2       0.18471    0.59672    0.38042   1.00
H2       0.35482    0.60712    0.61383   1.00
H2       0.20695    0.55146    0.37025   1.00
H2       0.34178    0.55794    0.62149   1.00
H2       0.18872    0.56104    0.41739   1.00
H2       0.35758    0.57332    0.57502   1.00
C4       0.25114    0.98025    0.25465   1.00
C4       0.25015    1.02191    0.25585   1.00
C3       0.28634    0.95897    0.24856   1.00
C3       0.28469    1.04504    0.25514   1.00
C3       0.21585    0.95854    0.25964   1.00
C3       0.21347    1.04170    0.25788   1.00
C2       0.25349    0.89595    0.25415   1.00
C2       0.24811    1.10622    0.25632   1.00
C3       0.28759    0.91811    0.24849   1.00
C3       0.28378    1.08591    0.25517   1.00
C3       0.21841    0.91696    0.25960   1.00
C3       0.21379    1.08336    0.25764   1.00
H1       0.31233    0.97237    0.24354   1.00
H1       0.31184    1.03306    0.25497   1.00
C5       0.17927    0.97835    0.26426   1.00
C5       0.17778    1.01998    0.26032   1.00
H1       0.31393    0.90451    0.24410   1.00
H1       0.30972    1.10091    0.25447   1.00
H1       0.19399    0.90052    0.26332   1.00
H1       0.18829    1.09848    0.25879   1.00
C6       0.14286    0.95515    0.27365   1.00
C6       0.13907    1.04119    0.25826   1.00
H2       0.14980    0.93345    0.29583   1.00
H2       0.14045    1.06310    0.23526   1.00
H2       0.12119    0.97286    0.28858   1.00
H2       0.11589    1.02228    0.24770   1.00
C6       0.12363    0.93606    0.23679   1.00
C6       0.12635    1.05942    0.29824   1.00
H2       0.14626    0.92292    0.21854   1.00
H2       0.15135    1.07383    0.31184   1.00
C6       0.09126    0.90459    0.24376   1.00
C6       0.09163    1.08911    0.29781   1.00
H2       0.11116    0.95949    0.21912   1.00
H2       0.11877    1.03546    0.31786   1.00
C6       0.10806    0.86735    0.26327   1.00
C6       0.10236    1.12708    0.27561   1.00
C6       0.05747    0.92074    0.26908   1.00
C6       0.05448    1.07107    0.27941   1.00
C6       0.07408    0.89245    0.20363   1.00
C6       0.08191    1.10054    0.34057   1.00
H2       0.13242    0.85558    0.24642   1.00
H2       0.12886    1.14020    0.28750   1.00
H2       0.11851    0.87330    0.29268   1.00
H2       0.10723    1.12154    0.24471   1.00
H2       0.08590    0.84459    0.26553   1.00
H2       0.07902    1.14863    0.27779   1.00
H2       0.03381    0.89955    0.27144   1.00
H2       0.02973    1.09098    0.28178   1.00
H2       0.06744    0.92725    0.29858   1.00
H2       0.05890    1.06494    0.24851   1.00
H2       0.04565    0.94745    0.25641   1.00
H2       0.04676    1.04385    0.29398   1.00
H2       0.09672    0.88042    0.18471   1.00
H2       0.10712    1.11383    0.35482   1.00
H2       0.05146    0.87025    0.20695   1.00
H2       0.05794    1.12149    0.34178   1.00
H2       0.06104    0.91739    0.18872   1.00
H2       0.07332    1.07502    0.35758   1.00
C4       0.01975    0.75465    0.24886   1.00
C4       -0.02191   0.75585    0.24985   1.00
C3       0.04103    0.74856    0.21366   1.00
C3       -0.04504   0.75514    0.21531   1.00
C3       0.04146    0.75964    0.28415   1.00
C3       -0.04170   0.75788    0.28653   1.00
C2       0.10405    0.75415    0.24651   1.00
C2       -0.10622   0.75632    0.25189   1.00
C3       0.08189    0.74849    0.21241   1.00
C3       -0.08591   0.75517    0.21622   1.00
C3       0.08304    0.75960    0.28159   1.00
C3       -0.08336   0.75764    0.28621   1.00
H1       0.02763    0.74354    0.18767   1.00
H1       -0.03306   0.75497    0.18816   1.00
C5       0.02165    0.76426    0.32073   1.00
C5       -0.01998   0.76032    0.32222   1.00
H1       0.09549    0.74410    0.18607   1.00
H1       -0.10091   0.75447    0.19028   1.00
H1       0.09948    0.76332    0.30601   1.00
H1       -0.09848   0.75879    0.31171   1.00
C6       0.04485    0.77365    0.35714   1.00
C6       -0.04119   0.75826    0.36093   1.00
H2       0.06655    0.79583    0.35020   1.00
H2       -0.06310   0.73526    0.35955   1.00
H2       0.02714    0.78858    0.37881   1.00
H2       -0.02228   0.74770    0.38411   1.00
C6       0.06394    0.73679    0.37637   1.00
C6       -0.05942   0.79824    0.37365   1.00
H2       0.07708    0.71854    0.35374   1.00
H2       -0.07383   0.81184    0.34865   1.00
C6       0.09541    0.74376    0.40874   1.00
C6       -0.08911   0.79781    0.40837   1.00
H2       0.04051    0.71912    0.38884   1.00
H2       -0.03546   0.81786    0.38123   1.00
C6       0.13265    0.76327    0.39194   1.00
C6       -0.12708   0.77561    0.39764   1.00
C6       0.07926    0.76908    0.44253   1.00
C6       -0.07107   0.77941    0.44552   1.00
C6       0.10755    0.70363    0.42592   1.00
C6       -0.10054   0.84057    0.41809   1.00
H2       0.14442    0.74642    0.36758   1.00
H2       -0.14020   0.78750    0.37114   1.00
H2       0.12670    0.79268    0.38149   1.00
H2       -0.12154   0.74471    0.39277   1.00
H2       0.15541    0.76553    0.41410   1.00
H2       -0.14863   0.77779    0.42098   1.00
H2       0.10045    0.77144    0.46619   1.00
H2       -0.09098   0.78178    0.47027   1.00
H2       0.07275    0.79858    0.43256   1.00
H2       -0.06494   0.74851    0.44110   1.00
H2       0.05255    0.75641    0.45435   1.00
H2       -0.04385   0.79398    0.45324   1.00
H2       0.11958    0.68471    0.40328   1.00
H2       -0.11383   0.85482    0.39288   1.00
H2       0.12975    0.70695    0.44854   1.00
H2       -0.12149   0.84178    0.44206   1.00
H2       0.08261    0.68872    0.43896   1.00
H2       -0.07502   0.85758    0.42668   1.00
C4       0.48025    0.75465    0.25114   1.00
C4       0.52191    0.75585    0.25015   1.00
C3       0.45897    0.74856    0.28634   1.00
C3       0.54504    0.75514    0.28469   1.00
C3       0.45854    0.75964    0.21585   1.00
C3       0.54170    0.75788    0.21347   1.00
C2       0.39595    0.75415    0.25349   1.00
C2       0.60622    0.75632    0.24811   1.00
C3       0.41811    0.74849    0.28759   1.00
C3       0.58591    0.75517    0.28378   1.00
C3       0.41696    0.75960    0.21841   1.00
C3       0.58336    0.75764    0.21379   1.00
H1       0.47237    0.74354    0.31233   1.00
H1       0.53306    0.75497    0.31184   1.00
C5       0.47835    0.76426    0.17927   1.00
C5       0.51998    0.76032    0.17778   1.00
H1       0.40451    0.74410    0.31393   1.00
H1       0.60091    0.75447    0.30972   1.00
H1       0.40052    0.76332    0.19399   1.00
H1       0.59848    0.75879    0.18829   1.00
C6       0.45515    0.77365    0.14286   1.00
C6       0.54119    0.75826    0.13907   1.00
H2       0.43345    0.79583    0.14980   1.00
H2       0.56310    0.73526    0.14045   1.00
H2       0.47286    0.78858    0.12119   1.00
H2       0.52228    0.74770    0.11589   1.00
C6       0.43606    0.73679    0.12363   1.00
C6       0.55942    0.79824    0.12635   1.00
H2       0.42292    0.71854    0.14626   1.00
H2       0.57383    0.81184    0.15135   1.00
C6       0.40459    0.74376    0.09126   1.00
C6       0.58911    0.79781    0.09163   1.00
H2       0.45949    0.71912    0.11116   1.00
H2       0.53546    0.81786    0.11877   1.00
C6       0.36735    0.76327    0.10806   1.00
C6       0.62708    0.77561    0.10236   1.00
C6       0.42074    0.76908    0.05747   1.00
C6       0.57107    0.77941    0.05448   1.00
C6       0.39245    0.70363    0.07408   1.00
C6       0.60054    0.84057    0.08191   1.00
H2       0.35558    0.74642    0.13242   1.00
H2       0.64020    0.78750    0.12886   1.00
H2       0.37330    0.79268    0.11851   1.00
H2       0.62154    0.74471    0.10723   1.00
H2       0.34459    0.76553    0.08590   1.00
H2       0.64863    0.77779    0.07902   1.00
H2       0.39955    0.77144    0.03381   1.00
H2       0.59098    0.78178    0.02973   1.00
H2       0.42725    0.79858    0.06744   1.00
H2       0.56494    0.74851    0.05890   1.00
H2       0.44745    0.75641    0.04565   1.00
H2       0.54385    0.79398    0.04676   1.00
H2       0.38042    0.68471    0.09672   1.00
H2       0.61383    0.85482    0.10712   1.00
H2       0.37025    0.70695    0.05146   1.00
H2       0.62149    0.84178    0.05794   1.00
H2       0.41739    0.68872    0.06104   1.00
H2       0.57502    0.85758    0.07332   1.00
C4       0.24886    0.51975    0.25465   1.00
C4       0.24985    0.47809    0.25585   1.00
C3       0.21366    0.54103    0.24856   1.00
C3       0.21531    0.45496    0.25514   1.00
C3       0.28415    0.54146    0.25964   1.00
C3       0.28653    0.45830    0.25788   1.00
C2       0.24651    0.60405    0.25415   1.00
C2       0.25189    0.39378    0.25632   1.00
C3       0.21241    0.58189    0.24849   1.00
C3       0.21622    0.41409    0.25517   1.00
C3       0.28159    0.58304    0.25960   1.00
C3       0.28621    0.41664    0.25764   1.00
H1       0.18767    0.52763    0.24354   1.00
H1       0.18816    0.46694    0.25497   1.00
C5       0.32073    0.52165    0.26426   1.00
C5       0.32222    0.48002    0.26032   1.00
H1       0.18607    0.59549    0.24410   1.00
H1       0.19028    0.39909    0.25447   1.00
H1       0.30601    0.59948    0.26332   1.00
H1       0.31171    0.40152    0.25879   1.00
C6       0.35714    0.54485    0.27365   1.00
C6       0.36093    0.45881    0.25826   1.00
H2       0.35020    0.56655    0.29583   1.00
H2       0.35955    0.43690    0.23526   1.00
H2       0.37881    0.52714    0.28858   1.00
H2       0.38411    0.47772    0.24770   1.00
C6       0.37637    0.56394    0.23679   1.00
C6       0.37365    0.44058    0.29824   1.00
H2       0.35374    0.57708    0.21854   1.00
H2       0.34865    0.42617    0.31184   1.00
C6       0.40874    0.59541    0.24376   1.00
C6       0.40837    0.41089    0.29781   1.00
H2       0.38884    0.54051    0.21912   1.00
H2       0.38123    0.46454    0.31786   1.00
C6       0.39194    0.63265    0.26327   1.00
C6       0.39764    0.37292    0.27561   1.00
C6       0.44253    0.57926    0.26908   1.00
C6       0.44552    0.42893    0.27941   1.00
C6       0.42592    0.60755    0.20363   1.00
C6       0.41809    0.39946    0.34057   1.00
H2       0.36758    0.64442    0.24642   1.00
H2       0.37114    0.35980    0.28750   1.00
H2       0.38149    0.62670    0.29268   1.00
H2       0.39277    0.37846    0.24471   1.00
H2       0.41410    0.65541    0.26553   1.00
H2       0.42098    0.35137    0.27779   1.00
H2       0.46619    0.60045    0.27144   1.00
H2       0.47027    0.40902    0.28178   1.00
H2       0.43256    0.57275    0.29858   1.00
H2       0.44110    0.43506    0.24851   1.00
H2       0.45435    0.55255    0.25641   1.00
H2       0.45324    0.45615    0.29398   1.00
H2       0.40328    0.61958    0.18471   1.00
H2       0.39288    0.38617    0.35482   1.00
H2       0.44854    0.62975    0.20695   1.00
H2       0.44206    0.37851    0.34178   1.00
H2       0.43896    0.58261    0.18872   1.00
H2       0.42668    0.42498    0.35758   1.00
C4       0.25465    0.74886    0.01975   1.00
C4       0.25585    0.74985    -0.02191   1.00
C3       0.24856    0.71366    0.04103   1.00
C3       0.25514    0.71531    -0.04504   1.00
C3       0.25964    0.78415    0.04146   1.00
C3       0.25788    0.78653    -0.04170   1.00
C2       0.25415    0.74651    0.10405   1.00
C2       0.25632    0.75189    -0.10622   1.00
C3       0.24849    0.71241    0.08189   1.00
C3       0.25517    0.71622    -0.08591   1.00
C3       0.25960    0.78159    0.08304   1.00
C3       0.25764    0.78621    -0.08336   1.00
H1       0.24354    0.68767    0.02763   1.00
H1       0.25497    0.68816    -0.03306   1.00
C5       0.26426    0.82073    0.02165   1.00
C5       0.26032    0.82222    -0.01998   1.00
H1       0.24410    0.68607    0.09549   1.00
H1       0.25447    0.69028    -0.10091   1.00
H1       0.26332    0.80601    0.09948   1.00
H1       0.25879    0.81171    -0.09848   1.00
C6       0.27365    0.85714    0.04485   1.00
C6       0.25826    0.86093    -0.04119   1.00
H2       0.29583    0.85020    0.06655   1.00
H2       0.23526    0.85955    -0.06310   1.00
H2       0.28858    0.87881    0.02714   1.00
H2       0.24770    0.88411    -0.02228   1.00
C6       0.23679    0.87637    0.06394   1.00
C6       0.29824    0.87365    -0.05942   1.00
H2       0.21854    0.85374    0.07708   1.00
H2       0.31184    0.84865    -0.07383   1.00
C6       0.24376    0.90874    0.09541   1.00
C6       0.29781    0.90837    -0.08911   1.00
H2       0.21912    0.88884    0.04051   1.00
H2       0.31786    0.88123    -0.03546   1.00
C6       0.26327    0.89194    0.13265   1.00
C6       0.27561    0.89764    -0.12708   1.00
C6       0.26908    0.94253    0.07926   1.00
C6       0.27941    0.94552    -0.07107   1.00
C6       0.20363    0.92592    0.10755   1.00
C6       0.34057    0.91809    -0.10054   1.00
H2       0.24642    0.86758    0.14442   1.00
H2       0.28750    0.87114    -0.14020   1.00
H2       0.29268    0.88149    0.12670   1.00
H2       0.24471    0.89277    -0.12154   1.00
H2       0.26553    0.91410    0.15541   1.00
H2       0.27779    0.92098    -0.14863   1.00
H2       0.27144    0.96619    0.10045   1.00
H2       0.28178    0.97027    -0.09098   1.00
H2       0.29858    0.93256    0.07275   1.00
H2       0.24851    0.94110    -0.06494   1.00
H2       0.25641    0.95435    0.05255   1.00
H2       0.29398    0.95324    -0.04385   1.00
H2       0.18471    0.90328    0.11958   1.00
H2       0.35482    0.89288    -0.11383   1.00
H2       0.20695    0.94854    0.12975   1.00
H2       0.34178    0.94206    -0.12149   1.00
H2       0.18872    0.93896    0.08261   1.00
H2       0.35758    0.92668    -0.07502   1.00
C4       0.75465    0.25114    0.48025   1.00
C4       0.75585    0.25015    0.52191   1.00
C3       0.74856    0.28634    0.45897   1.00
C3       0.75514    0.28469    0.54504   1.00
C3       0.75964    0.21585    0.45854   1.00
C3       0.75788    0.21347    0.54170   1.00
C2       0.75415    0.25349    0.39595   1.00
C2       0.75632    0.24811    0.60622   1.00
C3       0.74849    0.28759    0.41811   1.00
C3       0.75517    0.28378    0.58591   1.00
C3       0.75960    0.21841    0.41696   1.00
C3       0.75764    0.21379    0.58336   1.00
H1       0.74354    0.31233    0.47237   1.00
H1       0.75497    0.31184    0.53306   1.00
C5       0.76426    0.17927    0.47835   1.00
C5       0.76032    0.17778    0.51998   1.00
H1       0.74410    0.31393    0.40451   1.00
H1       0.75447    0.30972    0.60091   1.00
H1       0.76332    0.19399    0.40052   1.00
H1       0.75879    0.18829    0.59848   1.00
C6       0.77365    0.14286    0.45515   1.00
C6       0.75826    0.13907    0.54119   1.00
H2       0.79583    0.14980    0.43345   1.00
H2       0.73526    0.14045    0.56310   1.00
H2       0.78858    0.12119    0.47286   1.00
H2       0.74770    0.11589    0.52228   1.00
C6       0.73679    0.12363    0.43606   1.00
C6       0.79824    0.12635    0.55942   1.00
H2       0.71854    0.14626    0.42292   1.00
H2       0.81184    0.15135    0.57383   1.00
C6       0.74376    0.09126    0.40459   1.00
C6       0.79781    0.09163    0.58911   1.00
H2       0.71912    0.11116    0.45949   1.00
H2       0.81786    0.11877    0.53546   1.00
C6       0.76327    0.10806    0.36735   1.00
C6       0.77561    0.10236    0.62708   1.00
C6       0.76908    0.05747    0.42074   1.00
C6       0.77941    0.05448    0.57107   1.00
C6       0.70363    0.07408    0.39245   1.00
C6       0.84057    0.08191    0.60054   1.00
H2       0.74642    0.13242    0.35558   1.00
H2       0.78750    0.12886    0.64020   1.00
H2       0.79268    0.11851    0.37330   1.00
H2       0.74471    0.10723    0.62154   1.00
H2       0.76553    0.08590    0.34459   1.00
H2       0.77779    0.07902    0.64863   1.00
H2       0.77144    0.03381    0.39955   1.00
H2       0.78178    0.02973    0.59098   1.00
H2       0.79858    0.06744    0.42725   1.00
H2       0.74851    0.05890    0.56494   1.00
H2       0.75641    0.04565    0.44745   1.00
H2       0.79398    0.04676    0.54385   1.00
H2       0.68471    0.09672    0.38042   1.00
H2       0.85482    0.10712    0.61383   1.00
H2       0.70695    0.05146    0.37025   1.00
H2       0.84178    0.05794    0.62149   1.00
H2       0.68872    0.06104    0.41739   1.00
H2       0.85758    0.07332    0.57502   1.00
C4       0.75114    0.48025    0.25465   1.00
C4       0.75015    0.52191    0.25585   1.00
C3       0.78634    0.45897    0.24856   1.00
C3       0.78469    0.54504    0.25514   1.00
C3       0.71585    0.45854    0.25964   1.00
C3       0.71347    0.54170    0.25788   1.00
C2       0.75349    0.39595    0.25415   1.00
C2       0.74811    0.60622    0.25632   1.00
C3       0.78759    0.41811    0.24849   1.00
C3       0.78378    0.58591    0.25517   1.00
C3       0.71841    0.41696    0.25960   1.00
C3       0.71379    0.58336    0.25764   1.00
H1       0.81233    0.47237    0.24354   1.00
H1       0.81184    0.53306    0.25497   1.00
C5       0.67927    0.47835    0.26426   1.00
C5       0.67778    0.51998    0.26032   1.00
H1       0.81393    0.40451    0.24410   1.00
H1       0.80972    0.60091    0.25447   1.00
H1       0.69399    0.40052    0.26332   1.00
H1       0.68829    0.59848    0.25879   1.00
C6       0.64286    0.45515    0.27365   1.00
C6       0.63907    0.54119    0.25826   1.00
H2       0.64980    0.43345    0.29583   1.00
H2       0.64045    0.56310    0.23526   1.00
H2       0.62119    0.47286    0.28858   1.00
H2       0.61589    0.52228    0.24770   1.00
C6       0.62363    0.43606    0.23679   1.00
C6       0.62635    0.55942    0.29824   1.00
H2       0.64626    0.42292    0.21854   1.00
H2       0.65135    0.57383    0.31184   1.00
C6       0.59126    0.40459    0.24376   1.00
C6       0.59163    0.58911    0.29781   1.00
H2       0.61116    0.45949    0.21912   1.00
H2       0.61877    0.53546    0.31786   1.00
C6       0.60806    0.36735    0.26327   1.00
C6       0.60236    0.62708    0.27561   1.00
C6       0.55747    0.42074    0.26908   1.00
C6       0.55448    0.57107    0.27941   1.00
C6       0.57408    0.39245    0.20363   1.00
C6       0.58191    0.60054    0.34057   1.00
H2       0.63242    0.35558    0.24642   1.00
H2       0.62886    0.64020    0.28750   1.00
H2       0.61851    0.37330    0.29268   1.00
H2       0.60723    0.62154    0.24471   1.00
H2       0.58590    0.34459    0.26553   1.00
H2       0.57902    0.64863    0.27779   1.00
H2       0.53381    0.39955    0.27144   1.00
H2       0.52973    0.59098    0.28178   1.00
H2       0.56744    0.42725    0.29858   1.00
H2       0.55890    0.56494    0.24851   1.00
H2       0.54565    0.44745    0.25641   1.00
H2       0.54676    0.54385    0.29398   1.00
H2       0.59672    0.38042    0.18471   1.00
H2       0.60712    0.61383    0.35482   1.00
H2       0.55146    0.37025    0.20695   1.00
H2       0.55794    0.62149    0.34178   1.00
H2       0.56104    0.41739    0.18872   1.00
H2       0.57332    0.57502    0.35758   1.00
C4       0.51975    0.25465    0.24886   1.00
C4       0.47809    0.25585    0.24985   1.00
C3       0.54103    0.24856    0.21366   1.00
C3       0.45496    0.25514    0.21531   1.00
C3       0.54146    0.25964    0.28415   1.00
C3       0.45830    0.25788    0.28653   1.00
C2       0.60405    0.25415    0.24651   1.00
C2       0.39378    0.25632    0.25189   1.00
C3       0.58189    0.24849    0.21241   1.00
C3       0.41409    0.25517    0.21622   1.00
C3       0.58304    0.25960    0.28159   1.00
C3       0.41664    0.25764    0.28621   1.00
H1       0.52763    0.24354    0.18767   1.00
H1       0.46694    0.25497    0.18816   1.00
C5       0.52165    0.26426    0.32073   1.00
C5       0.48002    0.26032    0.32222   1.00
H1       0.59549    0.24410    0.18607   1.00
H1       0.39909    0.25447    0.19028   1.00
H1       0.59948    0.26332    0.30601   1.00
H1       0.40152    0.25879    0.31171   1.00
C6       0.54485    0.27365    0.35714   1.00
C6       0.45881    0.25826    0.36093   1.00
H2       0.56655    0.29583    0.35020   1.00
H2       0.43690    0.23526    0.35955   1.00
H2       0.52714    0.28858    0.37881   1.00
H2       0.47772    0.24770    0.38411   1.00
C6       0.56394    0.23679    0.37637   1.00
C6       0.44058    0.29824    0.37365   1.00
H2       0.57708    0.21854    0.35374   1.00
H2       0.42617    0.31184    0.34865   1.00
C6       0.59541    0.24376    0.40874   1.00
C6       0.41089    0.29781    0.40837   1.00
H2       0.54051    0.21912    0.38884   1.00
H2       0.46454    0.31786    0.38123   1.00
C6       0.63265    0.26327    0.39194   1.00
C6       0.37292    0.27561    0.39764   1.00
C6       0.57926    0.26908    0.44253   1.00
C6       0.42893    0.27941    0.44552   1.00
C6       0.60755    0.20363    0.42592   1.00
C6       0.39946    0.34057    0.41809   1.00
H2       0.64442    0.24642    0.36758   1.00
H2       0.35980    0.28750    0.37114   1.00
H2       0.62670    0.29268    0.38149   1.00
H2       0.37846    0.24471    0.39277   1.00
H2       0.65541    0.26553    0.41410   1.00
H2       0.35137    0.27779    0.42098   1.00
H2       0.60045    0.27144    0.46619   1.00
H2       0.40902    0.28178    0.47027   1.00
H2       0.57275    0.29858    0.43256   1.00
H2       0.43506    0.24851    0.44110   1.00
H2       0.55255    0.25641    0.45435   1.00
H2       0.45615    0.29398    0.45324   1.00
H2       0.61958    0.18471    0.40328   1.00
H2       0.38617    0.35482    0.39288   1.00
H2       0.62975    0.20695    0.44854   1.00
H2       0.37851    0.34178    0.44206   1.00
H2       0.58261    0.18872    0.43896   1.00
H2       0.42498    0.35758    0.42668   1.00
C4       0.98025    0.25465    0.25114   1.00
C4       1.02191    0.25585    0.25015   1.00
C3       0.95897    0.24856    0.28634   1.00
C3       1.04504    0.25514    0.28469   1.00
C3       0.95854    0.25964    0.21585   1.00
C3       1.04170    0.25788    0.21347   1.00
C2       0.89595    0.25415    0.25349   1.00
C2       1.10622    0.25632    0.24811   1.00
C3       0.91811    0.24849    0.28759   1.00
C3       1.08591    0.25517    0.28378   1.00
C3       0.91696    0.25960    0.21841   1.00
C3       1.08336    0.25764    0.21379   1.00
H1       0.97237    0.24354    0.31233   1.00
H1       1.03306    0.25497    0.31184   1.00
C5       0.97835    0.26426    0.17927   1.00
C5       1.01998    0.26032    0.17778   1.00
H1       0.90451    0.24410    0.31393   1.00
H1       1.10091    0.25447    0.30972   1.00
H1       0.90052    0.26332    0.19399   1.00
H1       1.09848    0.25879    0.18829   1.00
C6       0.95515    0.27365    0.14286   1.00
C6       1.04119    0.25826    0.13907   1.00
H2       0.93345    0.29583    0.14980   1.00
H2       1.06310    0.23526    0.14045   1.00
H2       0.97286    0.28858    0.12119   1.00
H2       1.02228    0.24770    0.11589   1.00
C6       0.93606    0.23679    0.12363   1.00
C6       1.05942    0.29824    0.12635   1.00
H2       0.92292    0.21854    0.14626   1.00
H2       1.07383    0.31184    0.15135   1.00
C6       0.90459    0.24376    0.09126   1.00
C6       1.08911    0.29781    0.09163   1.00
H2       0.95949    0.21912    0.11116   1.00
H2       1.03546    0.31786    0.11877   1.00
C6       0.86735    0.26327    0.10806   1.00
C6       1.12708    0.27561    0.10236   1.00
C6       0.92074    0.26908    0.05747   1.00
C6       1.07107    0.27941    0.05448   1.00
C6       0.89245    0.20363    0.07408   1.00
C6       1.10054    0.34057    0.08191   1.00
H2       0.85558    0.24642    0.13242   1.00
H2       1.14020    0.28750    0.12886   1.00
H2       0.87330    0.29268    0.11851   1.00
H2       1.12154    0.24471    0.10723   1.00
H2       0.84459    0.26553    0.08590   1.00
H2       1.14863    0.27779    0.07902   1.00
H2       0.89955    0.27144    0.03381   1.00
H2       1.09098    0.28178    0.02973   1.00
H2       0.92725    0.29858    0.06744   1.00
H2       1.06494    0.24851    0.05890   1.00
H2       0.94745    0.25641    0.04565   1.00
H2       1.04385    0.29398    0.04676   1.00
H2       0.88042    0.18471    0.09672   1.00
H2       1.11383    0.35482    0.10712   1.00
H2       0.87025    0.20695    0.05146   1.00
H2       1.12149    0.34178    0.05794   1.00
H2       0.91739    0.18872    0.06104   1.00
H2       1.07502    0.35758    0.07332   1.00
C4       0.74886    0.01975    0.25465   1.00
C4       0.74985    -0.02191   0.25585   1.00
C3       0.71366    0.04103    0.24856   1.00
C3       0.71531    -0.04504   0.25514   1.00
C3       0.78415    0.04146    0.25964   1.00
C3       0.78653    -0.04170   0.25788   1.00
C2       0.74651    0.10405    0.25415   1.00
C2       0.75189    -0.10622   0.25632   1.00
C3       0.71241    0.08189    0.24849   1.00
C3       0.71622    -0.08591   0.25517   1.00
C3       0.78159    0.08304    0.25960   1.00
C3       0.78621    -0.08336   0.25764   1.00
H1       0.68767    0.02763    0.24354   1.00
H1       0.68816    -0.03306   0.25497   1.00
C5       0.82073    0.02165    0.26426   1.00
C5       0.82222    -0.01998   0.26032   1.00
H1       0.68607    0.09549    0.24410   1.00
H1       0.69028    -0.10091   0.25447   1.00
H1       0.80601    0.09948    0.26332   1.00
H1       0.81171    -0.09848   0.25879   1.00
C6       0.85714    0.04485    0.27365   1.00
C6       0.86093    -0.04119   0.25826   1.00
H2       0.85020    0.06655    0.29583   1.00
H2       0.85955    -0.06310   0.23526   1.00
H2       0.87881    0.02714    0.28858   1.00
H2       0.88411    -0.02228   0.24770   1.00
C6       0.87637    0.06394    0.23679   1.00
C6       0.87365    -0.05942   0.29824   1.00
H2       0.85374    0.07708    0.21854   1.00
H2       0.84865    -0.07383   0.31184   1.00
C6       0.90874    0.09541    0.24376   1.00
C6       0.90837    -0.08911   0.29781   1.00
H2       0.88884    0.04051    0.21912   1.00
H2       0.88123    -0.03546   0.31786   1.00
C6       0.89194    0.13265    0.26327   1.00
C6       0.89764    -0.12708   0.27561   1.00
C6       0.94253    0.07926    0.26908   1.00
C6       0.94552    -0.07107   0.27941   1.00
C6       0.92592    0.10755    0.20363   1.00
C6       0.91809    -0.10054   0.34057   1.00
H2       0.86758    0.14442    0.24642   1.00
H2       0.87114    -0.14020   0.28750   1.00
H2       0.88149    0.12670    0.29268   1.00
H2       0.89277    -0.12154   0.24471   1.00
H2       0.91410    0.15541    0.26553   1.00
H2       0.92098    -0.14863   0.27779   1.00
H2       0.96619    0.10045    0.27144   1.00
H2       0.97027    -0.09098   0.28178   1.00
H2       0.93256    0.07275    0.29858   1.00
H2       0.94110    -0.06494   0.24851   1.00
H2       0.95435    0.05255    0.25641   1.00
H2       0.95324    -0.04385   0.29398   1.00
H2       0.90328    0.11958    0.18471   1.00
H2       0.89288    -0.11383   0.35482   1.00
H2       0.94854    0.12975    0.20695   1.00
H2       0.94206    -0.12149   0.34178   1.00
H2       0.93896    0.08261    0.18872   1.00
H2       0.92668    -0.07502   0.35758   1.00
C4       0.75465    0.24886    0.01975   1.00
C4       0.75585    0.24985    -0.02191   1.00
C3       0.74856    0.21366    0.04103   1.00
C3       0.75514    0.21531    -0.04504   1.00
C3       0.75964    0.28415    0.04146   1.00
C3       0.75788    0.28653    -0.04170   1.00
C2       0.75415    0.24651    0.10405   1.00
C2       0.75632    0.25189    -0.10622   1.00
C3       0.74849    0.21241    0.08189   1.00
C3       0.75517    0.21622    -0.08591   1.00
C3       0.75960    0.28159    0.08304   1.00
C3       0.75764    0.28621    -0.08336   1.00
H1       0.74354    0.18767    0.02763   1.00
H1       0.75497    0.18816    -0.03306   1.00
C5       0.76426    0.32073    0.02165   1.00
C5       0.76032    0.32222    -0.01998   1.00
H1       0.74410    0.18607    0.09549   1.00
H1       0.75447    0.19028    -0.10091   1.00
H1       0.76332    0.30601    0.09948   1.00
H1       0.75879    0.31171    -0.09848   1.00
C6       0.77365    0.35714    0.04485   1.00
C6       0.75826    0.36093    -0.04119   1.00
H2       0.79583    0.35020    0.06655   1.00
H2       0.73526    0.35955    -0.06310   1.00
H2       0.78858    0.37881    0.02714   1.00
H2       0.74770    0.38411    -0.02228   1.00
C6       0.73679    0.37637    0.06394   1.00
C6       0.79824    0.37365    -0.05942   1.00
H2       0.71854    0.35374    0.07708   1.00
H2       0.81184    0.34865    -0.07383   1.00
C6       0.74376    0.40874    0.09541   1.00
C6       0.79781    0.40837    -0.08911   1.00
H2       0.71912    0.38884    0.04051   1.00
H2       0.81786    0.38123    -0.03546   1.00
C6       0.76327    0.39194    0.13265   1.00
C6       0.77561    0.39764    -0.12708   1.00
C6       0.76908    0.44253    0.07926   1.00
C6       0.77941    0.44552    -0.07107   1.00
C6       0.70363    0.42592    0.10755   1.00
C6       0.84057    0.41809    -0.10054   1.00
H2       0.74642    0.36758    0.14442   1.00
H2       0.78750    0.37114    -0.14020   1.00
H2       0.79268    0.38149    0.12670   1.00
H2       0.74471    0.39277    -0.12154   1.00
H2       0.76553    0.41410    0.15541   1.00
H2       0.77779    0.42098    -0.14863   1.00
H2       0.77144    0.46619    0.10045   1.00
H2       0.78178    0.47027    -0.09098   1.00
H2       0.79858    0.43256    0.07275   1.00
H2       0.74851    0.44110    -0.06494   1.00
H2       0.75641    0.45435    0.05255   1.00
H2       0.79398    0.45324    -0.04385   1.00
H2       0.68471    0.40328    0.11958   1.00
H2       0.85482    0.39288    -0.11383   1.00
H2       0.70695    0.44854    0.12975   1.00
H2       0.84178    0.44206    -0.12149   1.00
H2       0.68872    0.43896    0.08261   1.00
H2       0.85758    0.42668    -0.07502   1.00
