data_IRMOF10_SG202_Ligand8_label_v.

_audit_creation_method             'generated by an auxiliary program of Tobunporous'

_symmetry_space_group_name_H-M     'P 1'
_symmetry_Int_Tables_number        1
_symmetry_cell_setting             triclinic

_cell_length_a                    34.2800
_cell_length_b                    34.2800
_cell_length_c                    34.2800
_cell_angle_alpha                 90.0000
_cell_angle_beta                  90.0000
_cell_angle_gamma                 90.0000

loop_
_atom_site_label
_atom_site_fract_x
_atom_site_fract_y
_atom_site_fract_z
_atom_site_occupancy
O1       0.75000    0.75000    0.75000   1.00
Zn1      0.71720    0.78280    0.78280   1.00
Zn1      0.78280    0.71720    0.78280   1.00
Zn1      0.78280    0.78280    0.71720   1.00
Zn1      0.71720    0.71720    0.71720   1.00
O2       0.72650    0.77350    0.83820   1.00
O2       0.72650    0.83820    0.77350   1.00
O2       0.66180    0.77350    0.77350   1.00
O2       0.77350    0.72650    0.83820   1.00
O2       0.83820    0.72650    0.77350   1.00
O2       0.77350    0.66180    0.77350   1.00
O2       0.77350    0.83820    0.72650   1.00
O2       0.83820    0.77350    0.72650   1.00
O2       0.77350    0.77350    0.66180   1.00
O2       0.66180    0.72650    0.72650   1.00
O2       0.72650    0.66180    0.72650   1.00
O2       0.72650    0.72650    0.66180   1.00
C1       0.75000    0.75000    0.85520   1.00
C1       0.75000    0.85520    0.75000   1.00
C1       0.64480    0.75000    0.75000   1.00
C1       0.85520    0.75000    0.75000   1.00
C1       0.75000    0.64480    0.75000   1.00
C1       0.75000    0.75000    0.64480   1.00
O1       0.25000    0.25000    0.75000   1.00
Zn1      0.21720    0.28280    0.78280   1.00
Zn1      0.28280    0.21720    0.78280   1.00
Zn1      0.28280    0.28280    0.71720   1.00
Zn1      0.21720    0.21720    0.71720   1.00
O2       0.22650    0.27350    0.83820   1.00
O2       0.22650    0.33820    0.77350   1.00
O2       0.16180    0.27350    0.77350   1.00
O2       0.27350    0.22650    0.83820   1.00
O2       0.33820    0.22650    0.77350   1.00
O2       0.27350    0.16180    0.77350   1.00
O2       0.27350    0.33820    0.72650   1.00
O2       0.33820    0.27350    0.72650   1.00
O2       0.27350    0.27350    0.66180   1.00
O2       0.16180    0.22650    0.72650   1.00
O2       0.22650    0.16180    0.72650   1.00
O2       0.22650    0.22650    0.66180   1.00
C1       0.25000    0.25000    0.85520   1.00
C1       0.25000    0.35520    0.75000   1.00
C1       0.14480    0.25000    0.75000   1.00
C1       0.35520    0.25000    0.75000   1.00
C1       0.25000    0.14480    0.75000   1.00
C1       0.25000    0.25000    0.64480   1.00
O1       0.25000    0.75000    0.25000   1.00
Zn1      0.21720    0.78280    0.28280   1.00
Zn1      0.28280    0.71720    0.28280   1.00
Zn1      0.28280    0.78280    0.21720   1.00
Zn1      0.21720    0.71720    0.21720   1.00
O2       0.22650    0.77350    0.33820   1.00
O2       0.22650    0.83820    0.27350   1.00
O2       0.16180    0.77350    0.27350   1.00
O2       0.27350    0.72650    0.33820   1.00
O2       0.33820    0.72650    0.27350   1.00
O2       0.27350    0.66180    0.27350   1.00
O2       0.27350    0.83820    0.22650   1.00
O2       0.33820    0.77350    0.22650   1.00
O2       0.27350    0.77350    0.16180   1.00
O2       0.16180    0.72650    0.22650   1.00
O2       0.22650    0.66180    0.22650   1.00
O2       0.22650    0.72650    0.16180   1.00
C1       0.25000    0.75000    0.35520   1.00
C1       0.25000    0.85520    0.25000   1.00
C1       0.14480    0.75000    0.25000   1.00
C1       0.35520    0.75000    0.25000   1.00
C1       0.25000    0.64480    0.25000   1.00
C1       0.25000    0.75000    0.14480   1.00
O1       0.75000    0.25000    0.25000   1.00
Zn1      0.71720    0.28280    0.28280   1.00
Zn1      0.78280    0.21720    0.28280   1.00
Zn1      0.78280    0.28280    0.21720   1.00
Zn1      0.71720    0.21720    0.21720   1.00
O2       0.72650    0.27350    0.33820   1.00
O2       0.72650    0.33820    0.27350   1.00
O2       0.66180    0.27350    0.27350   1.00
O2       0.77350    0.22650    0.33820   1.00
O2       0.83820    0.22650    0.27350   1.00
O2       0.77350    0.16180    0.27350   1.00
O2       0.77350    0.33820    0.22650   1.00
O2       0.83820    0.27350    0.22650   1.00
O2       0.77350    0.27350    0.16180   1.00
O2       0.66180    0.22650    0.22650   1.00
O2       0.72650    0.16180    0.22650   1.00
O2       0.72650    0.22650    0.16180   1.00
C1       0.75000    0.25000    0.35520   1.00
C1       0.75000    0.35520    0.25000   1.00
C1       0.64480    0.25000    0.25000   1.00
C1       0.85520    0.25000    0.25000   1.00
C1       0.75000    0.14480    0.25000   1.00
C1       0.75000    0.25000    0.14480   1.00
O1       0.25000    0.25000    0.25000   1.00
Zn1      0.28280    0.21720    0.21720   1.00
Zn1      0.21720    0.28280    0.21720   1.00
Zn1      0.21720    0.21720    0.28280   1.00
Zn1      0.28280    0.28280    0.28280   1.00
O2       0.27350    0.22650    0.16180   1.00
O2       0.27350    0.16180    0.22650   1.00
O2       0.33820    0.22650    0.22650   1.00
O2       0.22650    0.27350    0.16180   1.00
O2       0.16180    0.27350    0.22650   1.00
O2       0.22650    0.33820    0.22650   1.00
O2       0.22650    0.16180    0.27350   1.00
O2       0.16180    0.22650    0.27350   1.00
O2       0.22650    0.22650    0.33820   1.00
O2       0.33820    0.27350    0.27350   1.00
O2       0.27350    0.33820    0.27350   1.00
O2       0.27350    0.27350    0.33820   1.00
C1       0.25000    0.25000    0.14480   1.00
C1       0.25000    0.14480    0.25000   1.00
C1       0.35520    0.25000    0.25000   1.00
C1       0.14480    0.25000    0.25000   1.00
C1       0.25000    0.35520    0.25000   1.00
C1       0.25000    0.25000    0.35520   1.00
O1       0.75000    0.75000    0.25000   1.00
Zn1      0.78280    0.71720    0.21720   1.00
Zn1      0.71720    0.78280    0.21720   1.00
Zn1      0.71720    0.71720    0.28280   1.00
Zn1      0.78280    0.78280    0.28280   1.00
O2       0.77350    0.72650    0.16180   1.00
O2       0.77350    0.66180    0.22650   1.00
O2       0.83820    0.72650    0.22650   1.00
O2       0.72650    0.77350    0.16180   1.00
O2       0.66180    0.77350    0.22650   1.00
O2       0.72650    0.83820    0.22650   1.00
O2       0.72650    0.66180    0.27350   1.00
O2       0.66180    0.72650    0.27350   1.00
O2       0.72650    0.72650    0.33820   1.00
O2       0.83820    0.77350    0.27350   1.00
O2       0.77350    0.83820    0.27350   1.00
O2       0.77350    0.77350    0.33820   1.00
C1       0.75000    0.75000    0.14480   1.00
C1       0.75000    0.64480    0.25000   1.00
C1       0.85520    0.75000    0.25000   1.00
C1       0.64480    0.75000    0.25000   1.00
C1       0.75000    0.85520    0.25000   1.00
C1       0.75000    0.75000    0.35520   1.00
O1       0.75000    0.25000    0.75000   1.00
Zn1      0.78280    0.21720    0.71720   1.00
Zn1      0.71720    0.28280    0.71720   1.00
Zn1      0.71720    0.21720    0.78280   1.00
Zn1      0.78280    0.28280    0.78280   1.00
O2       0.77350    0.22650    0.66180   1.00
O2       0.77350    0.16180    0.72650   1.00
O2       0.83820    0.22650    0.72650   1.00
O2       0.72650    0.27350    0.66180   1.00
O2       0.66180    0.27350    0.72650   1.00
O2       0.72650    0.33820    0.72650   1.00
O2       0.72650    0.16180    0.77350   1.00
O2       0.66180    0.22650    0.77350   1.00
O2       0.72650    0.22650    0.83820   1.00
O2       0.83820    0.27350    0.77350   1.00
O2       0.77350    0.33820    0.77350   1.00
O2       0.77350    0.27350    0.83820   1.00
C1       0.75000    0.25000    0.64480   1.00
C1       0.75000    0.14480    0.75000   1.00
C1       0.85520    0.25000    0.75000   1.00
C1       0.64480    0.25000    0.75000   1.00
C1       0.75000    0.35520    0.75000   1.00
C1       0.75000    0.25000    0.85520   1.00
O1       0.25000    0.75000    0.75000   1.00
Zn1      0.28280    0.71720    0.71720   1.00
Zn1      0.21720    0.78280    0.71720   1.00
Zn1      0.21720    0.71720    0.78280   1.00
Zn1      0.28280    0.78280    0.78280   1.00
O2       0.27350    0.72650    0.66180   1.00
O2       0.27350    0.66180    0.72650   1.00
O2       0.33820    0.72650    0.72650   1.00
O2       0.22650    0.77350    0.66180   1.00
O2       0.16180    0.77350    0.72650   1.00
O2       0.22650    0.83820    0.72650   1.00
O2       0.22650    0.66180    0.77350   1.00
O2       0.16180    0.72650    0.77350   1.00
O2       0.22650    0.72650    0.83820   1.00
O2       0.33820    0.77350    0.77350   1.00
O2       0.27350    0.83820    0.77350   1.00
O2       0.27350    0.77350    0.83820   1.00
C1       0.25000    0.75000    0.64480   1.00
C1       0.25000    0.64480    0.75000   1.00
C1       0.35520    0.75000    0.75000   1.00
C1       0.14480    0.75000    0.75000   1.00
C1       0.25000    0.85520    0.75000   1.00
C1       0.25000    0.75000    0.85520   1.00
C4       0.74990    0.75000    0.97915   1.00
C4       0.75010    0.75000    1.02085   1.00
C3       0.72577    0.72494    0.95708   1.00
C3       0.73042    0.77918    1.04225   1.00
C3       0.77438    0.77568    0.95816   1.00
C3a      0.76966    0.72032    1.04263   1.00
C2       0.75125    0.75084    0.89483   1.00
C2       0.74863    0.74946    1.10517   1.00
C3       0.72650    0.72540    0.91566   1.00
C3       0.72972    0.77885    1.08359   1.00
C3       0.77516    0.77596    0.91680   1.00
C3       0.76851    0.72045    1.08415   1.00
H1       0.70633    0.70495    0.97192   1.00
H1       0.71523    0.80223    1.02685   1.00
H1       0.70765    0.70573    0.89968   1.00
H1       0.71422    0.80170    1.09895   1.00
H1       0.79473    0.79569    0.90179   1.00
H1       0.78353    0.69793    1.10043   1.00
C5       0.79274    0.68854    1.02239   1.00
H1       0.79379    0.79492    0.97401   1.00
H2       0.80255    0.66599    1.04354   1.00
H2       0.77363    0.67338    1.00103   1.00
N1       0.82706    0.70485    1.00292   1.00
C6       0.85628    0.72472    1.02012   1.00
C6       0.83538    0.70242    0.96460   1.00
C6       0.88343    0.73543    0.99243   1.00
C6       0.87013    0.72126    0.95711   1.00
H3       0.85774    0.73131    1.05099   1.00
H3       0.81709    0.68822    0.94309   1.00
H3       0.90998    0.75172    0.99741   1.00
H3       0.88415    0.72434    0.92903   1.00
C4       0.75000    0.97915    0.74990   1.00
C4       0.75000    1.02085    0.75010   1.00
C3       0.72494    0.95708    0.72577   1.00
C3       0.77918    1.04225    0.73042   1.00
C3       0.77568    0.95816    0.77438   1.00
C3a      0.72032    1.04263    0.76966   1.00
C2       0.75084    0.89483    0.75125   1.00
C2       0.74946    1.10517    0.74863   1.00
C3       0.72540    0.91566    0.72650   1.00
C3       0.77885    1.08359    0.72972   1.00
C3       0.77596    0.91680    0.77516   1.00
C3       0.72045    1.08415    0.76851   1.00
H1       0.70495    0.97192    0.70633   1.00
H1       0.80223    1.02685    0.71523   1.00
H1       0.70573    0.89968    0.70765   1.00
H1       0.80170    1.09895    0.71422   1.00
H1       0.79569    0.90179    0.79473   1.00
H1       0.69793    1.10043    0.78353   1.00
C5       0.68854    1.02239    0.79274   1.00
H1       0.79492    0.97401    0.79379   1.00
H2       0.66599    1.04354    0.80255   1.00
H2       0.67338    1.00103    0.77363   1.00
N1       0.70485    1.00292    0.82706   1.00
C6       0.72472    1.02012    0.85628   1.00
C6       0.70242    0.96460    0.83538   1.00
C6       0.73543    0.99243    0.88343   1.00
C6       0.72126    0.95711    0.87013   1.00
H3       0.73131    1.05099    0.85774   1.00
H3       0.68822    0.94309    0.81709   1.00
H3       0.75172    0.99741    0.90998   1.00
H3       0.72434    0.92903    0.88415   1.00
C4       0.52085    0.74990    0.75000   1.00
C4       0.47915    0.75010    0.75000   1.00
C3       0.54292    0.72577    0.77506   1.00
C3       0.45775    0.73042    0.72082   1.00
C3       0.54184    0.77438    0.72432   1.00
C3a      0.45737    0.76966    0.77968   1.00
C2       0.60517    0.75125    0.74916   1.00
C2       0.39483    0.74863    0.75054   1.00
C3       0.58434    0.72650    0.77460   1.00
C3       0.41641    0.72972    0.72115   1.00
C3       0.58320    0.77516    0.72404   1.00
C3       0.41585    0.76851    0.77955   1.00
H1       0.52808    0.70633    0.79505   1.00
H1       0.47315    0.71523    0.69777   1.00
H1       0.60032    0.70765    0.79427   1.00
H1       0.40105    0.71422    0.69830   1.00
H1       0.59821    0.79473    0.70431   1.00
H1       0.39957    0.78353    0.80207   1.00
C5       0.47761    0.79274    0.81146   1.00
H1       0.52599    0.79379    0.70508   1.00
H2       0.45646    0.80255    0.83401   1.00
H2       0.49897    0.77363    0.82662   1.00
N1       0.49708    0.82706    0.79515   1.00
C6       0.47988    0.85628    0.77528   1.00
C6       0.53540    0.83538    0.79758   1.00
C6       0.50757    0.88343    0.76457   1.00
C6       0.54289    0.87013    0.77874   1.00
H3       0.44901    0.85774    0.76869   1.00
H3       0.55691    0.81709    0.81178   1.00
H3       0.50259    0.90998    0.74828   1.00
H3       0.57097    0.88415    0.77566   1.00
C4       0.97915    0.74990    0.75000   1.00
C4       1.02085    0.75010    0.75000   1.00
C3       0.95708    0.72577    0.72494   1.00
C3       1.04225    0.73042    0.77918   1.00
C3       0.95816    0.77438    0.77568   1.00
C3a      1.04263    0.76966    0.72032   1.00
C2       0.89483    0.75125    0.75084   1.00
C2       1.10517    0.74863    0.74946   1.00
C3       0.91566    0.72650    0.72540   1.00
C3       1.08359    0.72972    0.77885   1.00
C3       0.91680    0.77516    0.77596   1.00
C3       1.08415    0.76851    0.72045   1.00
H1       0.97192    0.70633    0.70495   1.00
H1       1.02685    0.71523    0.80223   1.00
H1       0.89968    0.70765    0.70573   1.00
H1       1.09895    0.71422    0.80170   1.00
H1       0.90179    0.79473    0.79569   1.00
H1       1.10043    0.78353    0.69793   1.00
C5       1.02239    0.79274    0.68854   1.00
H1       0.97401    0.79379    0.79492   1.00
H2       1.04354    0.80255    0.66599   1.00
H2       1.00103    0.77363    0.67338   1.00
N1       1.00292    0.82706    0.70485   1.00
C6       1.02012    0.85628    0.72472   1.00
C6       0.96460    0.83538    0.70242   1.00
C6       0.99243    0.88343    0.73543   1.00
C6       0.95711    0.87013    0.72126   1.00
H3       1.05099    0.85774    0.73131   1.00
H3       0.94309    0.81709    0.68822   1.00
H3       0.99741    0.90998    0.75172   1.00
H3       0.92903    0.88415    0.72434   1.00
C4       0.75000    0.52085    0.74990   1.00
C4       0.75000    0.47915    0.75010   1.00
C3       0.77506    0.54292    0.72577   1.00
C3       0.72082    0.45775    0.73042   1.00
C3       0.72432    0.54184    0.77438   1.00
C3a      0.77968    0.45737    0.76966   1.00
C2       0.74916    0.60517    0.75125   1.00
C2       0.75054    0.39483    0.74863   1.00
C3       0.77460    0.58434    0.72650   1.00
C3       0.72115    0.41641    0.72972   1.00
C3       0.72404    0.58320    0.77516   1.00
C3       0.77955    0.41585    0.76851   1.00
H1       0.79505    0.52808    0.70633   1.00
H1       0.69777    0.47315    0.71523   1.00
H1       0.79427    0.60032    0.70765   1.00
H1       0.69830    0.40105    0.71422   1.00
H1       0.70431    0.59821    0.79473   1.00
H1       0.80207    0.39957    0.78353   1.00
C5       0.81146    0.47761    0.79274   1.00
H1       0.70508    0.52599    0.79379   1.00
H2       0.83401    0.45646    0.80255   1.00
H2       0.82662    0.49897    0.77363   1.00
N1       0.79515    0.49708    0.82706   1.00
C6       0.77528    0.47988    0.85628   1.00
C6       0.79758    0.53540    0.83538   1.00
C6       0.76457    0.50757    0.88343   1.00
C6       0.77874    0.54289    0.87013   1.00
H3       0.76869    0.44901    0.85774   1.00
H3       0.81178    0.55691    0.81709   1.00
H3       0.74828    0.50259    0.90998   1.00
H3       0.77566    0.57097    0.88415   1.00
C4       0.74990    0.75000    0.52085   1.00
C4       0.75010    0.75000    0.47915   1.00
C3       0.72577    0.77506    0.54292   1.00
C3       0.73042    0.72082    0.45775   1.00
C3       0.77438    0.72432    0.54184   1.00
C3a      0.76966    0.77968    0.45737   1.00
C2       0.75125    0.74916    0.60517   1.00
C2       0.74863    0.75054    0.39483   1.00
C3       0.72650    0.77460    0.58434   1.00
C3       0.72972    0.72115    0.41641   1.00
C3       0.77516    0.72404    0.58320   1.00
C3       0.76851    0.77955    0.41585   1.00
H1       0.70633    0.79505    0.52808   1.00
H1       0.71523    0.69777    0.47315   1.00
H1       0.70765    0.79427    0.60032   1.00
H1       0.71422    0.69830    0.40105   1.00
H1       0.79473    0.70431    0.59821   1.00
H1       0.78353    0.80207    0.39957   1.00
C5       0.79274    0.81146    0.47761   1.00
H1       0.79379    0.70508    0.52599   1.00
H2       0.80255    0.83401    0.45646   1.00
H2       0.77363    0.82662    0.49897   1.00
N1       0.82706    0.79515    0.49708   1.00
C6       0.85628    0.77528    0.47988   1.00
C6       0.83538    0.79758    0.53540   1.00
C6       0.88343    0.76457    0.50757   1.00
C6       0.87013    0.77874    0.54289   1.00
H3       0.85774    0.76869    0.44901   1.00
H3       0.81709    0.81178    0.55691   1.00
H3       0.90998    0.74828    0.50259   1.00
H3       0.88415    0.77566    0.57097   1.00
C4       0.24990    0.25000    0.97915   1.00
C4       0.25010    0.25000    1.02085   1.00
C3       0.22577    0.22494    0.95708   1.00
C3       0.23042    0.27918    1.04225   1.00
C3       0.27438    0.27568    0.95816   1.00
C3a      0.26966    0.22032    1.04263   1.00
C2       0.25125    0.25084    0.89483   1.00
C2       0.24863    0.24946    1.10517   1.00
C3       0.22650    0.22540    0.91566   1.00
C3       0.22972    0.27885    1.08359   1.00
C3       0.27516    0.27596    0.91680   1.00
C3       0.26851    0.22045    1.08415   1.00
H1       0.20633    0.20495    0.97192   1.00
H1       0.21523    0.30223    1.02685   1.00
H1       0.20765    0.20573    0.89968   1.00
H1       0.21422    0.30170    1.09895   1.00
H1       0.29473    0.29569    0.90179   1.00
H1       0.28353    0.19793    1.10043   1.00
C5       0.29274    0.18854    1.02239   1.00
H1       0.29379    0.29492    0.97401   1.00
H2       0.30255    0.16599    1.04354   1.00
H2       0.27363    0.17338    1.00103   1.00
N1       0.32706    0.20485    1.00292   1.00
C6       0.35628    0.22472    1.02012   1.00
C6       0.33538    0.20242    0.96460   1.00
C6       0.38343    0.23543    0.99243   1.00
C6       0.37013    0.22126    0.95711   1.00
H3       0.35774    0.23131    1.05099   1.00
H3       0.31709    0.18822    0.94309   1.00
H3       0.40998    0.25172    0.99741   1.00
H3       0.38415    0.22434    0.92903   1.00
C4       0.25000    0.47915    0.74990   1.00
C4       0.25000    0.52085    0.75010   1.00
C3       0.22494    0.45708    0.72577   1.00
C3       0.27918    0.54225    0.73042   1.00
C3       0.27568    0.45816    0.77438   1.00
C3a      0.22032    0.54263    0.76966   1.00
C2       0.25084    0.39483    0.75125   1.00
C2       0.24946    0.60517    0.74863   1.00
C3       0.22540    0.41566    0.72650   1.00
C3       0.27885    0.58359    0.72972   1.00
C3       0.27596    0.41680    0.77516   1.00
C3       0.22045    0.58415    0.76851   1.00
H1       0.20495    0.47192    0.70633   1.00
H1       0.30223    0.52685    0.71523   1.00
H1       0.20573    0.39968    0.70765   1.00
H1       0.30170    0.59895    0.71422   1.00
H1       0.29569    0.40179    0.79473   1.00
H1       0.19793    0.60043    0.78353   1.00
C5       0.18854    0.52239    0.79274   1.00
H1       0.29492    0.47401    0.79379   1.00
H2       0.16599    0.54354    0.80255   1.00
H2       0.17338    0.50103    0.77363   1.00
N1       0.20485    0.50292    0.82706   1.00
C6       0.22472    0.52012    0.85628   1.00
C6       0.20242    0.46460    0.83538   1.00
C6       0.23543    0.49243    0.88343   1.00
C6       0.22126    0.45711    0.87013   1.00
H3       0.23131    0.55099    0.85774   1.00
H3       0.18822    0.44309    0.81709   1.00
H3       0.25172    0.49741    0.90998   1.00
H3       0.22434    0.42903    0.88415   1.00
C4       0.02085    0.24990    0.75000   1.00
C4       -0.02085   0.25010    0.75000   1.00
C3       0.04292    0.22577    0.77506   1.00
C3       -0.04225   0.23042    0.72082   1.00
C3       0.04184    0.27438    0.72432   1.00
C3a      -0.04263   0.26966    0.77968   1.00
C2       0.10517    0.25125    0.74916   1.00
C2       -0.10517   0.24863    0.75054   1.00
C3       0.08434    0.22650    0.77460   1.00
C3       -0.08359   0.22972    0.72115   1.00
C3       0.08320    0.27516    0.72404   1.00
C3       -0.08415   0.26851    0.77955   1.00
H1       0.02808    0.20633    0.79505   1.00
H1       -0.02685   0.21523    0.69777   1.00
H1       0.10032    0.20765    0.79427   1.00
H1       -0.09895   0.21422    0.69830   1.00
H1       0.09821    0.29473    0.70431   1.00
H1       -0.10043   0.28353    0.80207   1.00
C5       -0.02239   0.29274    0.81146   1.00
H1       0.02599    0.29379    0.70508   1.00
H2       -0.04354   0.30255    0.83401   1.00
H2       -0.00103   0.27363    0.82662   1.00
N1       -0.00292   0.32706    0.79515   1.00
C6       -0.02012   0.35628    0.77528   1.00
C6       0.03540    0.33538    0.79758   1.00
C6       0.00757    0.38343    0.76457   1.00
C6       0.04289    0.37013    0.77874   1.00
H3       -0.05099   0.35774    0.76869   1.00
H3       0.05691    0.31709    0.81178   1.00
H3       0.00259    0.40998    0.74828   1.00
H3       0.07097    0.38415    0.77566   1.00
C4       0.47915    0.24990    0.75000   1.00
C4       0.52085    0.25010    0.75000   1.00
C3       0.45708    0.22577    0.72494   1.00
C3       0.54225    0.23042    0.77918   1.00
C3       0.45816    0.27438    0.77568   1.00
C3a      0.54263    0.26966    0.72032   1.00
C2       0.39483    0.25125    0.75084   1.00
C2       0.60517    0.24863    0.74946   1.00
C3       0.41566    0.22650    0.72540   1.00
C3       0.58359    0.22972    0.77885   1.00
C3       0.41680    0.27516    0.77596   1.00
C3       0.58415    0.26851    0.72045   1.00
H1       0.47192    0.20633    0.70495   1.00
H1       0.52685    0.21523    0.80223   1.00
H1       0.39968    0.20765    0.70573   1.00
H1       0.59895    0.21422    0.80170   1.00
H1       0.40179    0.29473    0.79569   1.00
H1       0.60043    0.28353    0.69793   1.00
C5       0.52239    0.29274    0.68854   1.00
H1       0.47401    0.29379    0.79492   1.00
H2       0.54354    0.30255    0.66599   1.00
H2       0.50103    0.27363    0.67338   1.00
N1       0.50292    0.32706    0.70485   1.00
C6       0.52012    0.35628    0.72472   1.00
C6       0.46460    0.33538    0.70242   1.00
C6       0.49243    0.38343    0.73543   1.00
C6       0.45711    0.37013    0.72126   1.00
H3       0.55099    0.35774    0.73131   1.00
H3       0.44309    0.31709    0.68822   1.00
H3       0.49741    0.40998    0.75172   1.00
H3       0.42903    0.38415    0.72434   1.00
C4       0.25000    0.02085    0.74990   1.00
C4       0.25000    -0.02085   0.75010   1.00
C3       0.27506    0.04292    0.72577   1.00
C3       0.22082    -0.04225   0.73042   1.00
C3       0.22432    0.04184    0.77438   1.00
C3a      0.27968    -0.04263   0.76966   1.00
C2       0.24916    0.10517    0.75125   1.00
C2       0.25054    -0.10517   0.74863   1.00
C3       0.27460    0.08434    0.72650   1.00
C3       0.22115    -0.08359   0.72972   1.00
C3       0.22404    0.08320    0.77516   1.00
C3       0.27955    -0.08415   0.76851   1.00
H1       0.29505    0.02808    0.70633   1.00
H1       0.19777    -0.02685   0.71523   1.00
H1       0.29427    0.10032    0.70765   1.00
H1       0.19830    -0.09895   0.71422   1.00
H1       0.20431    0.09821    0.79473   1.00
H1       0.30207    -0.10043   0.78353   1.00
C5       0.31146    -0.02239   0.79274   1.00
H1       0.20508    0.02599    0.79379   1.00
H2       0.33401    -0.04354   0.80255   1.00
H2       0.32662    -0.00103   0.77363   1.00
N1       0.29515    -0.00292   0.82706   1.00
C6       0.27528    -0.02012   0.85628   1.00
C6       0.29758    0.03540    0.83538   1.00
C6       0.26457    0.00757    0.88343   1.00
C6       0.27874    0.04289    0.87013   1.00
H3       0.26869    -0.05099   0.85774   1.00
H3       0.31178    0.05691    0.81709   1.00
H3       0.24828    0.00259    0.90998   1.00
H3       0.27566    0.07097    0.88415   1.00
C4       0.24990    0.25000    0.52085   1.00
C4       0.25010    0.25000    0.47915   1.00
C3       0.22577    0.27506    0.54292   1.00
C3       0.23042    0.22082    0.45775   1.00
C3       0.27438    0.22432    0.54184   1.00
C3a      0.26966    0.27968    0.45737   1.00
C2       0.25125    0.24916    0.60517   1.00
C2       0.24863    0.25054    0.39483   1.00
C3       0.22650    0.27460    0.58434   1.00
C3       0.22972    0.22115    0.41641   1.00
C3       0.27516    0.22404    0.58320   1.00
C3       0.26851    0.27955    0.41585   1.00
H1       0.20633    0.29505    0.52808   1.00
H1       0.21523    0.19777    0.47315   1.00
H1       0.20765    0.29427    0.60032   1.00
H1       0.21422    0.19830    0.40105   1.00
H1       0.29473    0.20431    0.59821   1.00
H1       0.28353    0.30207    0.39957   1.00
C5       0.29274    0.31146    0.47761   1.00
H1       0.29379    0.20508    0.52599   1.00
H2       0.30255    0.33401    0.45646   1.00
H2       0.27363    0.32662    0.49897   1.00
N1       0.32706    0.29515    0.49708   1.00
C6       0.35628    0.27528    0.47988   1.00
C6       0.33538    0.29758    0.53540   1.00
C6       0.38343    0.26457    0.50757   1.00
C6       0.37013    0.27874    0.54289   1.00
H3       0.35774    0.26869    0.44901   1.00
H3       0.31709    0.31178    0.55691   1.00
H3       0.40998    0.24828    0.50259   1.00
H3       0.38415    0.27566    0.57097   1.00
C4       0.24990    0.75000    0.47915   1.00
C4       0.25010    0.75000    0.52085   1.00
C3       0.22577    0.72494    0.45708   1.00
C3       0.23042    0.77918    0.54225   1.00
C3       0.27438    0.77568    0.45816   1.00
C3a      0.26966    0.72032    0.54263   1.00
C2       0.25125    0.75084    0.39483   1.00
C2       0.24863    0.74946    0.60517   1.00
C3       0.22650    0.72540    0.41566   1.00
C3       0.22972    0.77885    0.58359   1.00
C3       0.27516    0.77596    0.41680   1.00
C3       0.26851    0.72045    0.58415   1.00
H1       0.20633    0.70495    0.47192   1.00
H1       0.21523    0.80223    0.52685   1.00
H1       0.20765    0.70573    0.39968   1.00
H1       0.21422    0.80170    0.59895   1.00
H1       0.29473    0.79569    0.40179   1.00
H1       0.28353    0.69793    0.60043   1.00
C5       0.29274    0.68854    0.52239   1.00
H1       0.29379    0.79492    0.47401   1.00
H2       0.30255    0.66599    0.54354   1.00
H2       0.27363    0.67338    0.50103   1.00
N1       0.32706    0.70485    0.50292   1.00
C6       0.35628    0.72472    0.52012   1.00
C6       0.33538    0.70242    0.46460   1.00
C6       0.38343    0.73543    0.49243   1.00
C6       0.37013    0.72126    0.45711   1.00
H3       0.35774    0.73131    0.55099   1.00
H3       0.31709    0.68822    0.44309   1.00
H3       0.40998    0.75172    0.49741   1.00
H3       0.38415    0.72434    0.42903   1.00
C4       0.25000    0.97915    0.24990   1.00
C4       0.25000    1.02085    0.25010   1.00
C3       0.22494    0.95708    0.22577   1.00
C3       0.27918    1.04225    0.23042   1.00
C3       0.27568    0.95816    0.27438   1.00
C3a      0.22032    1.04263    0.26966   1.00
C2       0.25084    0.89483    0.25125   1.00
C2       0.24946    1.10517    0.24863   1.00
C3       0.22540    0.91566    0.22650   1.00
C3       0.27885    1.08359    0.22972   1.00
C3       0.27596    0.91680    0.27516   1.00
C3       0.22045    1.08415    0.26851   1.00
H1       0.20495    0.97192    0.20633   1.00
H1       0.30223    1.02685    0.21523   1.00
H1       0.20573    0.89968    0.20765   1.00
H1       0.30170    1.09895    0.21422   1.00
H1       0.29569    0.90179    0.29473   1.00
H1       0.19793    1.10043    0.28353   1.00
C5       0.18854    1.02239    0.29274   1.00
H1       0.29492    0.97401    0.29379   1.00
H2       0.16599    1.04354    0.30255   1.00
H2       0.17338    1.00103    0.27363   1.00
N1       0.20485    1.00292    0.32706   1.00
C6       0.22472    1.02012    0.35628   1.00
C6       0.20242    0.96460    0.33538   1.00
C6       0.23543    0.99243    0.38343   1.00
C6       0.22126    0.95711    0.37013   1.00
H3       0.23131    1.05099    0.35774   1.00
H3       0.18822    0.94309    0.31709   1.00
H3       0.25172    0.99741    0.40998   1.00
H3       0.22434    0.92903    0.38415   1.00
C4       0.02085    0.74990    0.25000   1.00
C4       -0.02085   0.75010    0.25000   1.00
C3       0.04292    0.72577    0.27506   1.00
C3       -0.04225   0.73042    0.22082   1.00
C3       0.04184    0.77438    0.22432   1.00
C3a      -0.04263   0.76966    0.27968   1.00
C2       0.10517    0.75125    0.24916   1.00
C2       -0.10517   0.74863    0.25054   1.00
C3       0.08434    0.72650    0.27460   1.00
C3       -0.08359   0.72972    0.22115   1.00
C3       0.08320    0.77516    0.22404   1.00
C3       -0.08415   0.76851    0.27955   1.00
H1       0.02808    0.70633    0.29505   1.00
H1       -0.02685   0.71523    0.19777   1.00
H1       0.10032    0.70765    0.29427   1.00
H1       -0.09895   0.71422    0.19830   1.00
H1       0.09821    0.79473    0.20431   1.00
H1       -0.10043   0.78353    0.30207   1.00
C5       -0.02239   0.79274    0.31146   1.00
H1       0.02599    0.79379    0.20508   1.00
H2       -0.04354   0.80255    0.33401   1.00
H2       -0.00103   0.77363    0.32662   1.00
N1       -0.00292   0.82706    0.29515   1.00
C6       -0.02012   0.85628    0.27528   1.00
C6       0.03540    0.83538    0.29758   1.00
C6       0.00757    0.88343    0.26457   1.00
C6       0.04289    0.87013    0.27874   1.00
H3       -0.05099   0.85774    0.26869   1.00
H3       0.05691    0.81709    0.31178   1.00
H3       0.00259    0.90998    0.24828   1.00
H3       0.07097    0.88415    0.27566   1.00
C4       0.47915    0.74990    0.25000   1.00
C4       0.52085    0.75010    0.25000   1.00
C3       0.45708    0.72577    0.22494   1.00
C3       0.54225    0.73042    0.27918   1.00
C3       0.45816    0.77438    0.27568   1.00
C3a      0.54263    0.76966    0.22032   1.00
C2       0.39483    0.75125    0.25084   1.00
C2       0.60517    0.74863    0.24946   1.00
C3       0.41566    0.72650    0.22540   1.00
C3       0.58359    0.72972    0.27885   1.00
C3       0.41680    0.77516    0.27596   1.00
C3       0.58415    0.76851    0.22045   1.00
H1       0.47192    0.70633    0.20495   1.00
H1       0.52685    0.71523    0.30223   1.00
H1       0.39968    0.70765    0.20573   1.00
H1       0.59895    0.71422    0.30170   1.00
H1       0.40179    0.79473    0.29569   1.00
H1       0.60043    0.78353    0.19793   1.00
C5       0.52239    0.79274    0.18854   1.00
H1       0.47401    0.79379    0.29492   1.00
H2       0.54354    0.80255    0.16599   1.00
H2       0.50103    0.77363    0.17338   1.00
N1       0.50292    0.82706    0.20485   1.00
C6       0.52012    0.85628    0.22472   1.00
C6       0.46460    0.83538    0.20242   1.00
C6       0.49243    0.88343    0.23543   1.00
C6       0.45711    0.87013    0.22126   1.00
H3       0.55099    0.85774    0.23131   1.00
H3       0.44309    0.81709    0.18822   1.00
H3       0.49741    0.90998    0.25172   1.00
H3       0.42903    0.88415    0.22434   1.00
C4       0.25000    0.52085    0.24990   1.00
C4       0.25000    0.47915    0.25010   1.00
C3       0.27506    0.54292    0.22577   1.00
C3       0.22082    0.45775    0.23042   1.00
C3       0.22432    0.54184    0.27438   1.00
C3a      0.27968    0.45737    0.26966   1.00
C2       0.24916    0.60517    0.25125   1.00
C2       0.25054    0.39483    0.24863   1.00
C3       0.27460    0.58434    0.22650   1.00
C3       0.22115    0.41641    0.22972   1.00
C3       0.22404    0.58320    0.27516   1.00
C3       0.27955    0.41585    0.26851   1.00
H1       0.29505    0.52808    0.20633   1.00
H1       0.19777    0.47315    0.21523   1.00
H1       0.29427    0.60032    0.20765   1.00
H1       0.19830    0.40105    0.21422   1.00
H1       0.20431    0.59821    0.29473   1.00
H1       0.30207    0.39957    0.28353   1.00
C5       0.31146    0.47761    0.29274   1.00
H1       0.20508    0.52599    0.29379   1.00
H2       0.33401    0.45646    0.30255   1.00
H2       0.32662    0.49897    0.27363   1.00
N1       0.29515    0.49708    0.32706   1.00
C6       0.27528    0.47988    0.35628   1.00
C6       0.29758    0.53540    0.33538   1.00
C6       0.26457    0.50757    0.38343   1.00
C6       0.27874    0.54289    0.37013   1.00
H3       0.26869    0.44901    0.35774   1.00
H3       0.31178    0.55691    0.31709   1.00
H3       0.24828    0.50259    0.40998   1.00
H3       0.27566    0.57097    0.38415   1.00
C4       0.24990    0.75000    0.02085   1.00
C4       0.25010    0.75000    -0.02085   1.00
C3       0.22577    0.77506    0.04292   1.00
C3       0.23042    0.72082    -0.04225   1.00
C3       0.27438    0.72432    0.04184   1.00
C3a      0.26966    0.77968    -0.04263   1.00
C2       0.25125    0.74916    0.10517   1.00
C2       0.24863    0.75054    -0.10517   1.00
C3       0.22650    0.77460    0.08434   1.00
C3       0.22972    0.72115    -0.08359   1.00
C3       0.27516    0.72404    0.08320   1.00
C3       0.26851    0.77955    -0.08415   1.00
H1       0.20633    0.79505    0.02808   1.00
H1       0.21523    0.69777    -0.02685   1.00
H1       0.20765    0.79427    0.10032   1.00
H1       0.21422    0.69830    -0.09895   1.00
H1       0.29473    0.70431    0.09821   1.00
H1       0.28353    0.80207    -0.10043   1.00
C5       0.29274    0.81146    -0.02239   1.00
H1       0.29379    0.70508    0.02599   1.00
H2       0.30255    0.83401    -0.04354   1.00
H2       0.27363    0.82662    -0.00103   1.00
N1       0.32706    0.79515    -0.00292   1.00
C6       0.35628    0.77528    -0.02012   1.00
C6       0.33538    0.79758    0.03540   1.00
C6       0.38343    0.76457    0.00757   1.00
C6       0.37013    0.77874    0.04289   1.00
H3       0.35774    0.76869    -0.05099   1.00
H3       0.31709    0.81178    0.05691   1.00
H3       0.40998    0.74828    0.00259   1.00
H3       0.38415    0.77566    0.07097   1.00
C4       0.74990    0.25000    0.47915   1.00
C4       0.75010    0.25000    0.52085   1.00
C3       0.72577    0.22494    0.45708   1.00
C3       0.73042    0.27918    0.54225   1.00
C3       0.77438    0.27568    0.45816   1.00
C3a      0.76966    0.22032    0.54263   1.00
C2       0.75125    0.25084    0.39483   1.00
C2       0.74863    0.24946    0.60517   1.00
C3       0.72650    0.22540    0.41566   1.00
C3       0.72972    0.27885    0.58359   1.00
C3       0.77516    0.27596    0.41680   1.00
C3       0.76851    0.22045    0.58415   1.00
H1       0.70633    0.20495    0.47192   1.00
H1       0.71523    0.30223    0.52685   1.00
H1       0.70765    0.20573    0.39968   1.00
H1       0.71422    0.30170    0.59895   1.00
H1       0.79473    0.29569    0.40179   1.00
H1       0.78353    0.19793    0.60043   1.00
C5       0.79274    0.18854    0.52239   1.00
H1       0.79379    0.29492    0.47401   1.00
H2       0.80255    0.16599    0.54354   1.00
H2       0.77363    0.17338    0.50103   1.00
N1       0.82706    0.20485    0.50292   1.00
C6       0.85628    0.22472    0.52012   1.00
C6       0.83538    0.20242    0.46460   1.00
C6       0.88343    0.23543    0.49243   1.00
C6       0.87013    0.22126    0.45711   1.00
H3       0.85774    0.23131    0.55099   1.00
H3       0.81709    0.18822    0.44309   1.00
H3       0.90998    0.25172    0.49741   1.00
H3       0.88415    0.22434    0.42903   1.00
C4       0.75000    0.47915    0.24990   1.00
C4       0.75000    0.52085    0.25010   1.00
C3       0.72494    0.45708    0.22577   1.00
C3       0.77918    0.54225    0.23042   1.00
C3       0.77568    0.45816    0.27438   1.00
C3a      0.72032    0.54263    0.26966   1.00
C2       0.75084    0.39483    0.25125   1.00
C2       0.74946    0.60517    0.24863   1.00
C3       0.72540    0.41566    0.22650   1.00
C3       0.77885    0.58359    0.22972   1.00
C3       0.77596    0.41680    0.27516   1.00
C3       0.72045    0.58415    0.26851   1.00
H1       0.70495    0.47192    0.20633   1.00
H1       0.80223    0.52685    0.21523   1.00
H1       0.70573    0.39968    0.20765   1.00
H1       0.80170    0.59895    0.21422   1.00
H1       0.79569    0.40179    0.29473   1.00
H1       0.69793    0.60043    0.28353   1.00
C5       0.68854    0.52239    0.29274   1.00
H1       0.79492    0.47401    0.29379   1.00
H2       0.66599    0.54354    0.30255   1.00
H2       0.67338    0.50103    0.27363   1.00
N1       0.70485    0.50292    0.32706   1.00
C6       0.72472    0.52012    0.35628   1.00
C6       0.70242    0.46460    0.33538   1.00
C6       0.73543    0.49243    0.38343   1.00
C6       0.72126    0.45711    0.37013   1.00
H3       0.73131    0.55099    0.35774   1.00
H3       0.68822    0.44309    0.31709   1.00
H3       0.75172    0.49741    0.40998   1.00
H3       0.72434    0.42903    0.38415   1.00
C4       0.52085    0.24990    0.25000   1.00
C4       0.47915    0.25010    0.25000   1.00
C3       0.54292    0.22577    0.27506   1.00
C3       0.45775    0.23042    0.22082   1.00
C3       0.54184    0.27438    0.22432   1.00
C3a      0.45737    0.26966    0.27968   1.00
C2       0.60517    0.25125    0.24916   1.00
C2       0.39483    0.24863    0.25054   1.00
C3       0.58434    0.22650    0.27460   1.00
C3       0.41641    0.22972    0.22115   1.00
C3       0.58320    0.27516    0.22404   1.00
C3       0.41585    0.26851    0.27955   1.00
H1       0.52808    0.20633    0.29505   1.00
H1       0.47315    0.21523    0.19777   1.00
H1       0.60032    0.20765    0.29427   1.00
H1       0.40105    0.21422    0.19830   1.00
H1       0.59821    0.29473    0.20431   1.00
H1       0.39957    0.28353    0.30207   1.00
C5       0.47761    0.29274    0.31146   1.00
H1       0.52599    0.29379    0.20508   1.00
H2       0.45646    0.30255    0.33401   1.00
H2       0.49897    0.27363    0.32662   1.00
N1       0.49708    0.32706    0.29515   1.00
C6       0.47988    0.35628    0.27528   1.00
C6       0.53540    0.33538    0.29758   1.00
C6       0.50757    0.38343    0.26457   1.00
C6       0.54289    0.37013    0.27874   1.00
H3       0.44901    0.35774    0.26869   1.00
H3       0.55691    0.31709    0.31178   1.00
H3       0.50259    0.40998    0.24828   1.00
H3       0.57097    0.38415    0.27566   1.00
C4       0.97915    0.24990    0.25000   1.00
C4       1.02085    0.25010    0.25000   1.00
C3       0.95708    0.22577    0.22494   1.00
C3       1.04225    0.23042    0.27918   1.00
C3       0.95816    0.27438    0.27568   1.00
C3a      1.04263    0.26966    0.22032   1.00
C2       0.89483    0.25125    0.25084   1.00
C2       1.10517    0.24863    0.24946   1.00
C3       0.91566    0.22650    0.22540   1.00
C3       1.08359    0.22972    0.27885   1.00
C3       0.91680    0.27516    0.27596   1.00
C3       1.08415    0.26851    0.22045   1.00
H1       0.97192    0.20633    0.20495   1.00
H1       1.02685    0.21523    0.30223   1.00
H1       0.89968    0.20765    0.20573   1.00
H1       1.09895    0.21422    0.30170   1.00
H1       0.90179    0.29473    0.29569   1.00
H1       1.10043    0.28353    0.19793   1.00
C5       1.02239    0.29274    0.18854   1.00
H1       0.97401    0.29379    0.29492   1.00
H2       1.04354    0.30255    0.16599   1.00
H2       1.00103    0.27363    0.17338   1.00
N1       1.00292    0.32706    0.20485   1.00
C6       1.02012    0.35628    0.22472   1.00
C6       0.96460    0.33538    0.20242   1.00
C6       0.99243    0.38343    0.23543   1.00
C6       0.95711    0.37013    0.22126   1.00
H3       1.05099    0.35774    0.23131   1.00
H3       0.94309    0.31709    0.18822   1.00
H3       0.99741    0.40998    0.25172   1.00
H3       0.92903    0.38415    0.22434   1.00
C4       0.75000    0.02085    0.24990   1.00
C4       0.75000    -0.02085   0.25010   1.00
C3       0.77506    0.04292    0.22577   1.00
C3       0.72082    -0.04225   0.23042   1.00
C3       0.72432    0.04184    0.27438   1.00
C3a      0.77968    -0.04263   0.26966   1.00
C2       0.74916    0.10517    0.25125   1.00
C2       0.75054    -0.10517   0.24863   1.00
C3       0.77460    0.08434    0.22650   1.00
C3       0.72115    -0.08359   0.22972   1.00
C3       0.72404    0.08320    0.27516   1.00
C3       0.77955    -0.08415   0.26851   1.00
H1       0.79505    0.02808    0.20633   1.00
H1       0.69777    -0.02685   0.21523   1.00
H1       0.79427    0.10032    0.20765   1.00
H1       0.69830    -0.09895   0.21422   1.00
H1       0.70431    0.09821    0.29473   1.00
H1       0.80207    -0.10043   0.28353   1.00
C5       0.81146    -0.02239   0.29274   1.00
H1       0.70508    0.02599    0.29379   1.00
H2       0.83401    -0.04354   0.30255   1.00
H2       0.82662    -0.00103   0.27363   1.00
N1       0.79515    -0.00292   0.32706   1.00
C6       0.77528    -0.02012   0.35628   1.00
C6       0.79758    0.03540    0.33538   1.00
C6       0.76457    0.00757    0.38343   1.00
C6       0.77874    0.04289    0.37013   1.00
H3       0.76869    -0.05099   0.35774   1.00
H3       0.81178    0.05691    0.31709   1.00
H3       0.74828    0.00259    0.40998   1.00
H3       0.77566    0.07097    0.38415   1.00
C4       0.74990    0.25000    0.02085   1.00
C4       0.75010    0.25000    -0.02085   1.00
C3       0.72577    0.27506    0.04292   1.00
C3       0.73042    0.22082    -0.04225   1.00
C3       0.77438    0.22432    0.04184   1.00
C3a      0.76966    0.27968    -0.04263   1.00
C2       0.75125    0.24916    0.10517   1.00
C2       0.74863    0.25054    -0.10517   1.00
C3       0.72650    0.27460    0.08434   1.00
C3       0.72972    0.22115    -0.08359   1.00
C3       0.77516    0.22404    0.08320   1.00
C3       0.76851    0.27955    -0.08415   1.00
H1       0.70633    0.29505    0.02808   1.00
H1       0.71523    0.19777    -0.02685   1.00
H1       0.70765    0.29427    0.10032   1.00
H1       0.71422    0.19830    -0.09895   1.00
H1       0.79473    0.20431    0.09821   1.00
H1       0.78353    0.30207    -0.10043   1.00
C5       0.79274    0.31146    -0.02239   1.00
H1       0.79379    0.20508    0.02599   1.00
H2       0.80255    0.33401    -0.04354   1.00
H2       0.77363    0.32662    -0.00103   1.00
N1       0.82706    0.29515    -0.00292   1.00
C6       0.85628    0.27528    -0.02012   1.00
C6       0.83538    0.29758    0.03540   1.00
C6       0.88343    0.26457    0.00757   1.00
C6       0.87013    0.27874    0.04289   1.00
H3       0.85774    0.26869    -0.05099   1.00
H3       0.81709    0.31178    0.05691   1.00
H3       0.90998    0.24828    0.00259   1.00
H3       0.88415    0.27566    0.07097   1.00
