data_IRMOF10_SG202_Ligand4_label_x.

_audit_creation_method             'generated by an auxiliary program of Tobunporous'

_symmetry_space_group_name_H-M     'P 1'
_symmetry_Int_Tables_number        1
_symmetry_cell_setting             triclinic

_cell_length_a                    34.2800
_cell_length_b                    34.2800
_cell_length_c                    34.2800
_cell_angle_alpha                 90.0000
_cell_angle_beta                  90.0000
_cell_angle_gamma                 90.0000

loop_
_atom_site_label
_atom_site_fract_x
_atom_site_fract_y
_atom_site_fract_z
_atom_site_occupancy
O1       0.75000    0.75000    0.75000   1.00
Zn1      0.71720    0.78280    0.78280   1.00
Zn1      0.78280    0.71720    0.78280   1.00
Zn1      0.78280    0.78280    0.71720   1.00
Zn1      0.71720    0.71720    0.71720   1.00
O2       0.72650    0.77350    0.83820   1.00
O2       0.72650    0.83820    0.77350   1.00
O2       0.66180    0.77350    0.77350   1.00
O2       0.77350    0.72650    0.83820   1.00
O2       0.83820    0.72650    0.77350   1.00
O2       0.77350    0.66180    0.77350   1.00
O2       0.77350    0.83820    0.72650   1.00
O2       0.83820    0.77350    0.72650   1.00
O2       0.77350    0.77350    0.66180   1.00
O2       0.66180    0.72650    0.72650   1.00
O2       0.72650    0.66180    0.72650   1.00
O2       0.72650    0.72650    0.66180   1.00
C1       0.75000    0.75000    0.85520   1.00
C1       0.75000    0.85520    0.75000   1.00
C1       0.64480    0.75000    0.75000   1.00
C1       0.85520    0.75000    0.75000   1.00
C1       0.75000    0.64480    0.75000   1.00
C1       0.75000    0.75000    0.64480   1.00
O1       0.25000    0.25000    0.75000   1.00
Zn1      0.21720    0.28280    0.78280   1.00
Zn1      0.28280    0.21720    0.78280   1.00
Zn1      0.28280    0.28280    0.71720   1.00
Zn1      0.21720    0.21720    0.71720   1.00
O2       0.22650    0.27350    0.83820   1.00
O2       0.22650    0.33820    0.77350   1.00
O2       0.16180    0.27350    0.77350   1.00
O2       0.27350    0.22650    0.83820   1.00
O2       0.33820    0.22650    0.77350   1.00
O2       0.27350    0.16180    0.77350   1.00
O2       0.27350    0.33820    0.72650   1.00
O2       0.33820    0.27350    0.72650   1.00
O2       0.27350    0.27350    0.66180   1.00
O2       0.16180    0.22650    0.72650   1.00
O2       0.22650    0.16180    0.72650   1.00
O2       0.22650    0.22650    0.66180   1.00
C1       0.25000    0.25000    0.85520   1.00
C1       0.25000    0.35520    0.75000   1.00
C1       0.14480    0.25000    0.75000   1.00
C1       0.35520    0.25000    0.75000   1.00
C1       0.25000    0.14480    0.75000   1.00
C1       0.25000    0.25000    0.64480   1.00
O1       0.25000    0.75000    0.25000   1.00
Zn1      0.21720    0.78280    0.28280   1.00
Zn1      0.28280    0.71720    0.28280   1.00
Zn1      0.28280    0.78280    0.21720   1.00
Zn1      0.21720    0.71720    0.21720   1.00
O2       0.22650    0.77350    0.33820   1.00
O2       0.22650    0.83820    0.27350   1.00
O2       0.16180    0.77350    0.27350   1.00
O2       0.27350    0.72650    0.33820   1.00
O2       0.33820    0.72650    0.27350   1.00
O2       0.27350    0.66180    0.27350   1.00
O2       0.27350    0.83820    0.22650   1.00
O2       0.33820    0.77350    0.22650   1.00
O2       0.27350    0.77350    0.16180   1.00
O2       0.16180    0.72650    0.22650   1.00
O2       0.22650    0.66180    0.22650   1.00
O2       0.22650    0.72650    0.16180   1.00
C1       0.25000    0.75000    0.35520   1.00
C1       0.25000    0.85520    0.25000   1.00
C1       0.14480    0.75000    0.25000   1.00
C1       0.35520    0.75000    0.25000   1.00
C1       0.25000    0.64480    0.25000   1.00
C1       0.25000    0.75000    0.14480   1.00
O1       0.75000    0.25000    0.25000   1.00
Zn1      0.71720    0.28280    0.28280   1.00
Zn1      0.78280    0.21720    0.28280   1.00
Zn1      0.78280    0.28280    0.21720   1.00
Zn1      0.71720    0.21720    0.21720   1.00
O2       0.72650    0.27350    0.33820   1.00
O2       0.72650    0.33820    0.27350   1.00
O2       0.66180    0.27350    0.27350   1.00
O2       0.77350    0.22650    0.33820   1.00
O2       0.83820    0.22650    0.27350   1.00
O2       0.77350    0.16180    0.27350   1.00
O2       0.77350    0.33820    0.22650   1.00
O2       0.83820    0.27350    0.22650   1.00
O2       0.77350    0.27350    0.16180   1.00
O2       0.66180    0.22650    0.22650   1.00
O2       0.72650    0.16180    0.22650   1.00
O2       0.72650    0.22650    0.16180   1.00
C1       0.75000    0.25000    0.35520   1.00
C1       0.75000    0.35520    0.25000   1.00
C1       0.64480    0.25000    0.25000   1.00
C1       0.85520    0.25000    0.25000   1.00
C1       0.75000    0.14480    0.25000   1.00
C1       0.75000    0.25000    0.14480   1.00
O1       0.25000    0.25000    0.25000   1.00
Zn1      0.28280    0.21720    0.21720   1.00
Zn1      0.21720    0.28280    0.21720   1.00
Zn1      0.21720    0.21720    0.28280   1.00
Zn1      0.28280    0.28280    0.28280   1.00
O2       0.27350    0.22650    0.16180   1.00
O2       0.27350    0.16180    0.22650   1.00
O2       0.33820    0.22650    0.22650   1.00
O2       0.22650    0.27350    0.16180   1.00
O2       0.16180    0.27350    0.22650   1.00
O2       0.22650    0.33820    0.22650   1.00
O2       0.22650    0.16180    0.27350   1.00
O2       0.16180    0.22650    0.27350   1.00
O2       0.22650    0.22650    0.33820   1.00
O2       0.33820    0.27350    0.27350   1.00
O2       0.27350    0.33820    0.27350   1.00
O2       0.27350    0.27350    0.33820   1.00
C1       0.25000    0.25000    0.14480   1.00
C1       0.25000    0.14480    0.25000   1.00
C1       0.35520    0.25000    0.25000   1.00
C1       0.14480    0.25000    0.25000   1.00
C1       0.25000    0.35520    0.25000   1.00
C1       0.25000    0.25000    0.35520   1.00
O1       0.75000    0.75000    0.25000   1.00
Zn1      0.78280    0.71720    0.21720   1.00
Zn1      0.71720    0.78280    0.21720   1.00
Zn1      0.71720    0.71720    0.28280   1.00
Zn1      0.78280    0.78280    0.28280   1.00
O2       0.77350    0.72650    0.16180   1.00
O2       0.77350    0.66180    0.22650   1.00
O2       0.83820    0.72650    0.22650   1.00
O2       0.72650    0.77350    0.16180   1.00
O2       0.66180    0.77350    0.22650   1.00
O2       0.72650    0.83820    0.22650   1.00
O2       0.72650    0.66180    0.27350   1.00
O2       0.66180    0.72650    0.27350   1.00
O2       0.72650    0.72650    0.33820   1.00
O2       0.83820    0.77350    0.27350   1.00
O2       0.77350    0.83820    0.27350   1.00
O2       0.77350    0.77350    0.33820   1.00
C1       0.75000    0.75000    0.14480   1.00
C1       0.75000    0.64480    0.25000   1.00
C1       0.85520    0.75000    0.25000   1.00
C1       0.64480    0.75000    0.25000   1.00
C1       0.75000    0.85520    0.25000   1.00
C1       0.75000    0.75000    0.35520   1.00
O1       0.75000    0.25000    0.75000   1.00
Zn1      0.78280    0.21720    0.71720   1.00
Zn1      0.71720    0.28280    0.71720   1.00
Zn1      0.71720    0.21720    0.78280   1.00
Zn1      0.78280    0.28280    0.78280   1.00
O2       0.77350    0.22650    0.66180   1.00
O2       0.77350    0.16180    0.72650   1.00
O2       0.83820    0.22650    0.72650   1.00
O2       0.72650    0.27350    0.66180   1.00
O2       0.66180    0.27350    0.72650   1.00
O2       0.72650    0.33820    0.72650   1.00
O2       0.72650    0.16180    0.77350   1.00
O2       0.66180    0.22650    0.77350   1.00
O2       0.72650    0.22650    0.83820   1.00
O2       0.83820    0.27350    0.77350   1.00
O2       0.77350    0.33820    0.77350   1.00
O2       0.77350    0.27350    0.83820   1.00
C1       0.75000    0.25000    0.64480   1.00
C1       0.75000    0.14480    0.75000   1.00
C1       0.85520    0.25000    0.75000   1.00
C1       0.64480    0.25000    0.75000   1.00
C1       0.75000    0.35520    0.75000   1.00
C1       0.75000    0.25000    0.85520   1.00
O1       0.25000    0.75000    0.75000   1.00
Zn1      0.28280    0.71720    0.71720   1.00
Zn1      0.21720    0.78280    0.71720   1.00
Zn1      0.21720    0.71720    0.78280   1.00
Zn1      0.28280    0.78280    0.78280   1.00
O2       0.27350    0.72650    0.66180   1.00
O2       0.27350    0.66180    0.72650   1.00
O2       0.33820    0.72650    0.72650   1.00
O2       0.22650    0.77350    0.66180   1.00
O2       0.16180    0.77350    0.72650   1.00
O2       0.22650    0.83820    0.72650   1.00
O2       0.22650    0.66180    0.77350   1.00
O2       0.16180    0.72650    0.77350   1.00
O2       0.22650    0.72650    0.83820   1.00
O2       0.33820    0.77350    0.77350   1.00
O2       0.27350    0.83820    0.77350   1.00
O2       0.27350    0.77350    0.83820   1.00
C1       0.25000    0.75000    0.64480   1.00
C1       0.25000    0.64480    0.75000   1.00
C1       0.35520    0.75000    0.75000   1.00
C1       0.14480    0.75000    0.75000   1.00
C1       0.25000    0.85520    0.75000   1.00
C1       0.25000    0.75000    0.85520   1.00
C4       0.75460    0.74866    0.98025   1.00
C4       0.75514    0.74721    1.02191   1.00
C3       0.76692    0.78219    0.95897   1.00
C3       0.77180    0.77748    1.04504   1.00
C3       0.74127    0.71560    0.95854   1.00
C3       0.73856    0.71442    1.04170   1.00
C2       0.75534    0.75095    0.89595   1.00
C2       0.75453    0.74521    1.10622   1.00
C3       0.76749    0.78331    0.91811   1.00
C3       0.77137    0.77667    1.08591   1.00
C3       0.74252    0.71784    0.91696   1.00
C3       0.73851    0.71482    1.08336   1.00
H1       0.77558    0.80721    0.97237   1.00
H1       0.78522    0.80107    1.03306   1.00
C5       0.72698    0.68162    0.97835   1.00
C5       0.72282    0.68230    1.01998   1.00
H1       0.77685    0.80831    0.90451   1.00
H1       0.78373    0.79948    1.10091   1.00
H1       0.73353    0.69483    0.90052   1.00
H1       0.72675    0.69216    1.09848   1.00
C6       0.71690    0.64539    0.95515   1.00
C6       0.70168    0.64980    1.04119   1.00
H2       0.73959    0.64031    0.93345   1.00
H2       0.68246    0.66250    1.06310   1.00
H2       0.71900    0.61916    0.97286   1.00
H2       0.68095    0.63501    1.02228   1.00
C6       0.67537    0.64717    0.93606   1.00
C6       0.72994    0.61880    1.05942   1.00
H2       0.67088    0.67589    0.92292   1.00
H2       0.75422    0.63365    1.07383   1.00
C6       0.66522    0.61565    0.90459   1.00
C6       0.71221    0.58894    1.08911   1.00
H2       0.65383    0.64520    0.95949   1.00
H2       0.74315    0.60243    1.03546   1.00
C6       0.69052    0.62044    0.86735   1.00
C6       0.69836    0.60934    1.12708   1.00
C6       0.67025    0.57373    0.92074   1.00
C6       0.67770    0.56598    1.07107   1.00
C6       0.62187    0.62084    0.89245   1.00
C6       0.74438    0.55914    1.10054   1.00
H2       0.68810    0.64996    0.85558   1.00
H2       0.72190    0.62634    1.14020   1.00
H2       0.72121    0.61478    0.87330   1.00
H2       0.67402    0.62900    1.12154   1.00
H2       0.68140    0.60012    0.84459   1.00
H2       0.68857    0.58803    1.14863   1.00
H2       0.66046    0.55206    0.89955   1.00
H2       0.66738    0.54335    1.09098   1.00
H2       0.70078    0.56761    0.92725   1.00
H2       0.65315    0.58525    1.06494   1.00
H2       0.65337    0.56983    0.94745   1.00
H2       0.68646    0.55200    1.04385   1.00
H2       0.61681    0.64991    0.88042   1.00
H2       0.76933    0.57385    1.11383   1.00
H2       0.61345    0.59959    0.87025   1.00
H2       0.73345    0.53778    1.12149   1.00
H2       0.60245    0.61700    0.91739   1.00
H2       0.75482    0.54320    1.07502   1.00
C4       0.74866    0.98025    0.75460   1.00
C4       0.74721    1.02191    0.75514   1.00
C3       0.78219    0.95897    0.76692   1.00
C3       0.77748    1.04504    0.77180   1.00
C3       0.71560    0.95854    0.74127   1.00
C3       0.71442    1.04170    0.73856   1.00
C2       0.75095    0.89595    0.75534   1.00
C2       0.74521    1.10622    0.75453   1.00
C3       0.78331    0.91811    0.76749   1.00
C3       0.77667    1.08591    0.77137   1.00
C3       0.71784    0.91696    0.74252   1.00
C3       0.71482    1.08336    0.73851   1.00
H1       0.80721    0.97237    0.77558   1.00
H1       0.80107    1.03306    0.78522   1.00
C5       0.68162    0.97835    0.72698   1.00
C5       0.68230    1.01998    0.72282   1.00
H1       0.80831    0.90451    0.77685   1.00
H1       0.79948    1.10091    0.78373   1.00
H1       0.69483    0.90052    0.73353   1.00
H1       0.69216    1.09848    0.72675   1.00
C6       0.64539    0.95515    0.71690   1.00
C6       0.64980    1.04119    0.70168   1.00
H2       0.64031    0.93345    0.73959   1.00
H2       0.66250    1.06310    0.68246   1.00
H2       0.61916    0.97286    0.71900   1.00
H2       0.63501    1.02228    0.68095   1.00
C6       0.64717    0.93606    0.67537   1.00
C6       0.61880    1.05942    0.72994   1.00
H2       0.67589    0.92292    0.67088   1.00
H2       0.63365    1.07383    0.75422   1.00
C6       0.61565    0.90459    0.66522   1.00
C6       0.58894    1.08911    0.71221   1.00
H2       0.64520    0.95949    0.65383   1.00
H2       0.60243    1.03546    0.74315   1.00
C6       0.62044    0.86735    0.69052   1.00
C6       0.60934    1.12708    0.69836   1.00
C6       0.57373    0.92074    0.67025   1.00
C6       0.56598    1.07107    0.67770   1.00
C6       0.62084    0.89245    0.62187   1.00
C6       0.55914    1.10054    0.74438   1.00
H2       0.64996    0.85558    0.68810   1.00
H2       0.62634    1.14020    0.72190   1.00
H2       0.61478    0.87330    0.72121   1.00
H2       0.62900    1.12154    0.67402   1.00
H2       0.60012    0.84459    0.68140   1.00
H2       0.58803    1.14863    0.68857   1.00
H2       0.55206    0.89955    0.66046   1.00
H2       0.54335    1.09098    0.66738   1.00
H2       0.56761    0.92725    0.70078   1.00
H2       0.58525    1.06494    0.65315   1.00
H2       0.56983    0.94745    0.65337   1.00
H2       0.55200    1.04385    0.68646   1.00
H2       0.64991    0.88042    0.61681   1.00
H2       0.57385    1.11383    0.76933   1.00
H2       0.59959    0.87025    0.61345   1.00
H2       0.53778    1.12149    0.73345   1.00
H2       0.61700    0.91739    0.60245   1.00
H2       0.54320    1.07502    0.75482   1.00
C4       0.51975    0.75460    0.75134   1.00
C4       0.47809    0.75514    0.75279   1.00
C3       0.54103    0.76692    0.71781   1.00
C3       0.45496    0.77180    0.72252   1.00
C3       0.54146    0.74127    0.78440   1.00
C3       0.45830    0.73856    0.78558   1.00
C2       0.60405    0.75534    0.74905   1.00
C2       0.39378    0.75453    0.75479   1.00
C3       0.58189    0.76749    0.71669   1.00
C3       0.41409    0.77137    0.72333   1.00
C3       0.58304    0.74252    0.78216   1.00
C3       0.41664    0.73851    0.78518   1.00
H1       0.52763    0.77558    0.69279   1.00
H1       0.46694    0.78522    0.69893   1.00
C5       0.52165    0.72698    0.81838   1.00
C5       0.48002    0.72282    0.81770   1.00
H1       0.59549    0.77685    0.69169   1.00
H1       0.39909    0.78373    0.70052   1.00
H1       0.59948    0.73353    0.80517   1.00
H1       0.40152    0.72675    0.80784   1.00
C6       0.54485    0.71690    0.85461   1.00
C6       0.45881    0.70168    0.85020   1.00
H2       0.56655    0.73959    0.85969   1.00
H2       0.43690    0.68246    0.83750   1.00
H2       0.52714    0.71900    0.88084   1.00
H2       0.47772    0.68095    0.86499   1.00
C6       0.56394    0.67537    0.85283   1.00
C6       0.44058    0.72994    0.88120   1.00
H2       0.57708    0.67088    0.82411   1.00
H2       0.42617    0.75422    0.86635   1.00
C6       0.59541    0.66522    0.88435   1.00
C6       0.41089    0.71221    0.91106   1.00
H2       0.54051    0.65383    0.85480   1.00
H2       0.46454    0.74315    0.89757   1.00
C6       0.63265    0.69052    0.87956   1.00
C6       0.37292    0.69836    0.89066   1.00
C6       0.57926    0.67025    0.92627   1.00
C6       0.42893    0.67770    0.93402   1.00
C6       0.60755    0.62187    0.87916   1.00
C6       0.39946    0.74438    0.94086   1.00
H2       0.64442    0.68810    0.85004   1.00
H2       0.35980    0.72190    0.87366   1.00
H2       0.62670    0.72121    0.88522   1.00
H2       0.37846    0.67402    0.87100   1.00
H2       0.65541    0.68140    0.89988   1.00
H2       0.35137    0.68857    0.91197   1.00
H2       0.60045    0.66046    0.94794   1.00
H2       0.40902    0.66738    0.95665   1.00
H2       0.57275    0.70078    0.93239   1.00
H2       0.43506    0.65315    0.91475   1.00
H2       0.55255    0.65337    0.93017   1.00
H2       0.45615    0.68646    0.94800   1.00
H2       0.61958    0.61681    0.85009   1.00
H2       0.38617    0.76933    0.92615   1.00
H2       0.62975    0.61345    0.90041   1.00
H2       0.37851    0.73345    0.96222   1.00
H2       0.58261    0.60245    0.88300   1.00
H2       0.42498    0.75482    0.95680   1.00
C4       0.98025    0.75460    0.74866   1.00
C4       1.02191    0.75514    0.74721   1.00
C3       0.95897    0.76692    0.78219   1.00
C3       1.04504    0.77180    0.77748   1.00
C3       0.95854    0.74127    0.71560   1.00
C3       1.04170    0.73856    0.71442   1.00
C2       0.89595    0.75534    0.75095   1.00
C2       1.10622    0.75453    0.74521   1.00
C3       0.91811    0.76749    0.78331   1.00
C3       1.08591    0.77137    0.77667   1.00
C3       0.91696    0.74252    0.71784   1.00
C3       1.08336    0.73851    0.71482   1.00
H1       0.97237    0.77558    0.80721   1.00
H1       1.03306    0.78522    0.80107   1.00
C5       0.97835    0.72698    0.68162   1.00
C5       1.01998    0.72282    0.68230   1.00
H1       0.90451    0.77685    0.80831   1.00
H1       1.10091    0.78373    0.79948   1.00
H1       0.90052    0.73353    0.69483   1.00
H1       1.09848    0.72675    0.69216   1.00
C6       0.95515    0.71690    0.64539   1.00
C6       1.04119    0.70168    0.64980   1.00
H2       0.93345    0.73959    0.64031   1.00
H2       1.06310    0.68246    0.66250   1.00
H2       0.97286    0.71900    0.61916   1.00
H2       1.02228    0.68095    0.63501   1.00
C6       0.93606    0.67537    0.64717   1.00
C6       1.05942    0.72994    0.61880   1.00
H2       0.92292    0.67088    0.67589   1.00
H2       1.07383    0.75422    0.63365   1.00
C6       0.90459    0.66522    0.61565   1.00
C6       1.08911    0.71221    0.58894   1.00
H2       0.95949    0.65383    0.64520   1.00
H2       1.03546    0.74315    0.60243   1.00
C6       0.86735    0.69052    0.62044   1.00
C6       1.12708    0.69836    0.60934   1.00
C6       0.92074    0.67025    0.57373   1.00
C6       1.07107    0.67770    0.56598   1.00
C6       0.89245    0.62187    0.62084   1.00
C6       1.10054    0.74438    0.55914   1.00
H2       0.85558    0.68810    0.64996   1.00
H2       1.14020    0.72190    0.62634   1.00
H2       0.87330    0.72121    0.61478   1.00
H2       1.12154    0.67402    0.62900   1.00
H2       0.84459    0.68140    0.60012   1.00
H2       1.14863    0.68857    0.58803   1.00
H2       0.89955    0.66046    0.55206   1.00
H2       1.09098    0.66738    0.54335   1.00
H2       0.92725    0.70078    0.56761   1.00
H2       1.06494    0.65315    0.58525   1.00
H2       0.94745    0.65337    0.56983   1.00
H2       1.04385    0.68646    0.55200   1.00
H2       0.88042    0.61681    0.64991   1.00
H2       1.11383    0.76933    0.57385   1.00
H2       0.87025    0.61345    0.59959   1.00
H2       1.12149    0.73345    0.53778   1.00
H2       0.91739    0.60245    0.61700   1.00
H2       1.07502    0.75482    0.54320   1.00
C4       0.75134    0.51975    0.75460   1.00
C4       0.75279    0.47809    0.75514   1.00
C3       0.71781    0.54103    0.76692   1.00
C3       0.72252    0.45496    0.77180   1.00
C3       0.78440    0.54146    0.74127   1.00
C3       0.78558    0.45830    0.73856   1.00
C2       0.74905    0.60405    0.75534   1.00
C2       0.75479    0.39378    0.75453   1.00
C3       0.71669    0.58189    0.76749   1.00
C3       0.72333    0.41409    0.77137   1.00
C3       0.78216    0.58304    0.74252   1.00
C3       0.78518    0.41664    0.73851   1.00
H1       0.69279    0.52763    0.77558   1.00
H1       0.69893    0.46694    0.78522   1.00
C5       0.81838    0.52165    0.72698   1.00
C5       0.81770    0.48002    0.72282   1.00
H1       0.69169    0.59549    0.77685   1.00
H1       0.70052    0.39909    0.78373   1.00
H1       0.80517    0.59948    0.73353   1.00
H1       0.80784    0.40152    0.72675   1.00
C6       0.85461    0.54485    0.71690   1.00
C6       0.85020    0.45881    0.70168   1.00
H2       0.85969    0.56655    0.73959   1.00
H2       0.83750    0.43690    0.68246   1.00
H2       0.88084    0.52714    0.71900   1.00
H2       0.86499    0.47772    0.68095   1.00
C6       0.85283    0.56394    0.67537   1.00
C6       0.88120    0.44058    0.72994   1.00
H2       0.82411    0.57708    0.67088   1.00
H2       0.86635    0.42617    0.75422   1.00
C6       0.88435    0.59541    0.66522   1.00
C6       0.91106    0.41089    0.71221   1.00
H2       0.85480    0.54051    0.65383   1.00
H2       0.89757    0.46454    0.74315   1.00
C6       0.87956    0.63265    0.69052   1.00
C6       0.89066    0.37292    0.69836   1.00
C6       0.92627    0.57926    0.67025   1.00
C6       0.93402    0.42893    0.67770   1.00
C6       0.87916    0.60755    0.62187   1.00
C6       0.94086    0.39946    0.74438   1.00
H2       0.85004    0.64442    0.68810   1.00
H2       0.87366    0.35980    0.72190   1.00
H2       0.88522    0.62670    0.72121   1.00
H2       0.87100    0.37846    0.67402   1.00
H2       0.89988    0.65541    0.68140   1.00
H2       0.91197    0.35137    0.68857   1.00
H2       0.94794    0.60045    0.66046   1.00
H2       0.95665    0.40902    0.66738   1.00
H2       0.93239    0.57275    0.70078   1.00
H2       0.91475    0.43506    0.65315   1.00
H2       0.93017    0.55255    0.65337   1.00
H2       0.94800    0.45615    0.68646   1.00
H2       0.85009    0.61958    0.61681   1.00
H2       0.92615    0.38617    0.76933   1.00
H2       0.90041    0.62975    0.61345   1.00
H2       0.96222    0.37851    0.73345   1.00
H2       0.88300    0.58261    0.60245   1.00
H2       0.95680    0.42498    0.75482   1.00
C4       0.75460    0.75134    0.51975   1.00
C4       0.75514    0.75279    0.47809   1.00
C3       0.76692    0.71781    0.54103   1.00
C3       0.77180    0.72252    0.45496   1.00
C3       0.74127    0.78440    0.54146   1.00
C3       0.73856    0.78558    0.45830   1.00
C2       0.75534    0.74905    0.60405   1.00
C2       0.75453    0.75479    0.39378   1.00
C3       0.76749    0.71669    0.58189   1.00
C3       0.77137    0.72333    0.41409   1.00
C3       0.74252    0.78216    0.58304   1.00
C3       0.73851    0.78518    0.41664   1.00
H1       0.77558    0.69279    0.52763   1.00
H1       0.78522    0.69893    0.46694   1.00
C5       0.72698    0.81838    0.52165   1.00
C5       0.72282    0.81770    0.48002   1.00
H1       0.77685    0.69169    0.59549   1.00
H1       0.78373    0.70052    0.39909   1.00
H1       0.73353    0.80517    0.59948   1.00
H1       0.72675    0.80784    0.40152   1.00
C6       0.71690    0.85461    0.54485   1.00
C6       0.70168    0.85020    0.45881   1.00
H2       0.73959    0.85969    0.56655   1.00
H2       0.68246    0.83750    0.43690   1.00
H2       0.71900    0.88084    0.52714   1.00
H2       0.68095    0.86499    0.47772   1.00
C6       0.67537    0.85283    0.56394   1.00
C6       0.72994    0.88120    0.44058   1.00
H2       0.67088    0.82411    0.57708   1.00
H2       0.75422    0.86635    0.42617   1.00
C6       0.66522    0.88435    0.59541   1.00
C6       0.71221    0.91106    0.41089   1.00
H2       0.65383    0.85480    0.54051   1.00
H2       0.74315    0.89757    0.46454   1.00
C6       0.69052    0.87956    0.63265   1.00
C6       0.69836    0.89066    0.37292   1.00
C6       0.67025    0.92627    0.57926   1.00
C6       0.67770    0.93402    0.42893   1.00
C6       0.62187    0.87916    0.60755   1.00
C6       0.74438    0.94086    0.39946   1.00
H2       0.68810    0.85004    0.64442   1.00
H2       0.72190    0.87366    0.35980   1.00
H2       0.72121    0.88522    0.62670   1.00
H2       0.67402    0.87100    0.37846   1.00
H2       0.68140    0.89988    0.65541   1.00
H2       0.68857    0.91197    0.35137   1.00
H2       0.66046    0.94794    0.60045   1.00
H2       0.66738    0.95665    0.40902   1.00
H2       0.70078    0.93239    0.57275   1.00
H2       0.65315    0.91475    0.43506   1.00
H2       0.65337    0.93017    0.55255   1.00
H2       0.68646    0.94800    0.45615   1.00
H2       0.61681    0.85009    0.61958   1.00
H2       0.76933    0.92615    0.38617   1.00
H2       0.61345    0.90041    0.62975   1.00
H2       0.73345    0.96222    0.37851   1.00
H2       0.60245    0.88300    0.58261   1.00
H2       0.75482    0.95680    0.42498   1.00
C4       0.25460    0.24866    0.98025   1.00
C4       0.25514    0.24721    1.02191   1.00
C3       0.26692    0.28219    0.95897   1.00
C3       0.27180    0.27748    1.04504   1.00
C3       0.24127    0.21560    0.95854   1.00
C3       0.23856    0.21442    1.04170   1.00
C2       0.25534    0.25095    0.89595   1.00
C2       0.25453    0.24521    1.10622   1.00
C3       0.26749    0.28331    0.91811   1.00
C3       0.27137    0.27667    1.08591   1.00
C3       0.24252    0.21784    0.91696   1.00
C3       0.23851    0.21482    1.08336   1.00
H1       0.27558    0.30721    0.97237   1.00
H1       0.28522    0.30107    1.03306   1.00
C5       0.22698    0.18162    0.97835   1.00
C5       0.22282    0.18230    1.01998   1.00
H1       0.27685    0.30831    0.90451   1.00
H1       0.28373    0.29948    1.10091   1.00
H1       0.23353    0.19483    0.90052   1.00
H1       0.22675    0.19216    1.09848   1.00
C6       0.21690    0.14539    0.95515   1.00
C6       0.20168    0.14980    1.04119   1.00
H2       0.23959    0.14031    0.93345   1.00
H2       0.18246    0.16250    1.06310   1.00
H2       0.21900    0.11916    0.97286   1.00
H2       0.18095    0.13501    1.02228   1.00
C6       0.17537    0.14717    0.93606   1.00
C6       0.22994    0.11880    1.05942   1.00
H2       0.17088    0.17589    0.92292   1.00
H2       0.25422    0.13365    1.07383   1.00
C6       0.16522    0.11565    0.90459   1.00
C6       0.21221    0.08894    1.08911   1.00
H2       0.15383    0.14520    0.95949   1.00
H2       0.24315    0.10243    1.03546   1.00
C6       0.19052    0.12044    0.86735   1.00
C6       0.19836    0.10934    1.12708   1.00
C6       0.17025    0.07373    0.92074   1.00
C6       0.17770    0.06598    1.07107   1.00
C6       0.12187    0.12084    0.89245   1.00
C6       0.24438    0.05914    1.10054   1.00
H2       0.18810    0.14996    0.85558   1.00
H2       0.22190    0.12634    1.14020   1.00
H2       0.22121    0.11478    0.87330   1.00
H2       0.17402    0.12900    1.12154   1.00
H2       0.18140    0.10012    0.84459   1.00
H2       0.18857    0.08803    1.14863   1.00
H2       0.16046    0.05206    0.89955   1.00
H2       0.16738    0.04335    1.09098   1.00
H2       0.20078    0.06761    0.92725   1.00
H2       0.15315    0.08525    1.06494   1.00
H2       0.15337    0.06983    0.94745   1.00
H2       0.18646    0.05200    1.04385   1.00
H2       0.11681    0.14991    0.88042   1.00
H2       0.26933    0.07385    1.11383   1.00
H2       0.11345    0.09959    0.87025   1.00
H2       0.23345    0.03778    1.12149   1.00
H2       0.10245    0.11700    0.91739   1.00
H2       0.25482    0.04320    1.07502   1.00
C4       0.24866    0.48025    0.75460   1.00
C4       0.24721    0.52191    0.75514   1.00
C3       0.28219    0.45897    0.76692   1.00
C3       0.27748    0.54504    0.77180   1.00
C3       0.21560    0.45854    0.74127   1.00
C3       0.21442    0.54170    0.73856   1.00
C2       0.25095    0.39595    0.75534   1.00
C2       0.24521    0.60622    0.75453   1.00
C3       0.28331    0.41811    0.76749   1.00
C3       0.27667    0.58591    0.77137   1.00
C3       0.21784    0.41696    0.74252   1.00
C3       0.21482    0.58336    0.73851   1.00
H1       0.30721    0.47237    0.77558   1.00
H1       0.30107    0.53306    0.78522   1.00
C5       0.18162    0.47835    0.72698   1.00
C5       0.18230    0.51998    0.72282   1.00
H1       0.30831    0.40451    0.77685   1.00
H1       0.29948    0.60091    0.78373   1.00
H1       0.19483    0.40052    0.73353   1.00
H1       0.19216    0.59848    0.72675   1.00
C6       0.14539    0.45515    0.71690   1.00
C6       0.14980    0.54119    0.70168   1.00
H2       0.14031    0.43345    0.73959   1.00
H2       0.16250    0.56310    0.68246   1.00
H2       0.11916    0.47286    0.71900   1.00
H2       0.13501    0.52228    0.68095   1.00
C6       0.14717    0.43606    0.67537   1.00
C6       0.11880    0.55942    0.72994   1.00
H2       0.17589    0.42292    0.67088   1.00
H2       0.13365    0.57383    0.75422   1.00
C6       0.11565    0.40459    0.66522   1.00
C6       0.08894    0.58911    0.71221   1.00
H2       0.14520    0.45949    0.65383   1.00
H2       0.10243    0.53546    0.74315   1.00
C6       0.12044    0.36735    0.69052   1.00
C6       0.10934    0.62708    0.69836   1.00
C6       0.07373    0.42074    0.67025   1.00
C6       0.06598    0.57107    0.67770   1.00
C6       0.12084    0.39245    0.62187   1.00
C6       0.05914    0.60054    0.74438   1.00
H2       0.14996    0.35558    0.68810   1.00
H2       0.12634    0.64020    0.72190   1.00
H2       0.11478    0.37330    0.72121   1.00
H2       0.12900    0.62154    0.67402   1.00
H2       0.10012    0.34459    0.68140   1.00
H2       0.08803    0.64863    0.68857   1.00
H2       0.05206    0.39955    0.66046   1.00
H2       0.04335    0.59098    0.66738   1.00
H2       0.06761    0.42725    0.70078   1.00
H2       0.08525    0.56494    0.65315   1.00
H2       0.06983    0.44745    0.65337   1.00
H2       0.05200    0.54385    0.68646   1.00
H2       0.14991    0.38042    0.61681   1.00
H2       0.07385    0.61383    0.76933   1.00
H2       0.09959    0.37025    0.61345   1.00
H2       0.03778    0.62149    0.73345   1.00
H2       0.11700    0.41739    0.60245   1.00
H2       0.04320    0.57502    0.75482   1.00
C4       0.01975    0.25460    0.75134   1.00
C4       -0.02191   0.25514    0.75279   1.00
C3       0.04103    0.26692    0.71781   1.00
C3       -0.04504   0.27180    0.72252   1.00
C3       0.04146    0.24127    0.78440   1.00
C3       -0.04170   0.23856    0.78558   1.00
C2       0.10405    0.25534    0.74905   1.00
C2       -0.10622   0.25453    0.75479   1.00
C3       0.08189    0.26749    0.71669   1.00
C3       -0.08591   0.27137    0.72333   1.00
C3       0.08304    0.24252    0.78216   1.00
C3       -0.08336   0.23851    0.78518   1.00
H1       0.02763    0.27558    0.69279   1.00
H1       -0.03306   0.28522    0.69893   1.00
C5       0.02165    0.22698    0.81838   1.00
C5       -0.01998   0.22282    0.81770   1.00
H1       0.09549    0.27685    0.69169   1.00
H1       -0.10091   0.28373    0.70052   1.00
H1       0.09948    0.23353    0.80517   1.00
H1       -0.09848   0.22675    0.80784   1.00
C6       0.04485    0.21690    0.85461   1.00
C6       -0.04119   0.20168    0.85020   1.00
H2       0.06655    0.23959    0.85969   1.00
H2       -0.06310   0.18246    0.83750   1.00
H2       0.02714    0.21900    0.88084   1.00
H2       -0.02228   0.18095    0.86499   1.00
C6       0.06394    0.17537    0.85283   1.00
C6       -0.05942   0.22994    0.88120   1.00
H2       0.07708    0.17088    0.82411   1.00
H2       -0.07383   0.25422    0.86635   1.00
C6       0.09541    0.16522    0.88435   1.00
C6       -0.08911   0.21221    0.91106   1.00
H2       0.04051    0.15383    0.85480   1.00
H2       -0.03546   0.24315    0.89757   1.00
C6       0.13265    0.19052    0.87956   1.00
C6       -0.12708   0.19836    0.89066   1.00
C6       0.07926    0.17025    0.92627   1.00
C6       -0.07107   0.17770    0.93402   1.00
C6       0.10755    0.12187    0.87916   1.00
C6       -0.10054   0.24438    0.94086   1.00
H2       0.14442    0.18810    0.85004   1.00
H2       -0.14020   0.22190    0.87366   1.00
H2       0.12670    0.22121    0.88522   1.00
H2       -0.12154   0.17402    0.87100   1.00
H2       0.15541    0.18140    0.89988   1.00
H2       -0.14863   0.18857    0.91197   1.00
H2       0.10045    0.16046    0.94794   1.00
H2       -0.09098   0.16738    0.95665   1.00
H2       0.07275    0.20078    0.93239   1.00
H2       -0.06494   0.15315    0.91475   1.00
H2       0.05255    0.15337    0.93017   1.00
H2       -0.04385   0.18646    0.94800   1.00
H2       0.11958    0.11681    0.85009   1.00
H2       -0.11383   0.26933    0.92615   1.00
H2       0.12975    0.11345    0.90041   1.00
H2       -0.12149   0.23345    0.96222   1.00
H2       0.08261    0.10245    0.88300   1.00
H2       -0.07502   0.25482    0.95680   1.00
C4       0.48025    0.25460    0.74866   1.00
C4       0.52191    0.25514    0.74721   1.00
C3       0.45897    0.26692    0.78219   1.00
C3       0.54504    0.27180    0.77748   1.00
C3       0.45854    0.24127    0.71560   1.00
C3       0.54170    0.23856    0.71442   1.00
C2       0.39595    0.25534    0.75095   1.00
C2       0.60622    0.25453    0.74521   1.00
C3       0.41811    0.26749    0.78331   1.00
C3       0.58591    0.27137    0.77667   1.00
C3       0.41696    0.24252    0.71784   1.00
C3       0.58336    0.23851    0.71482   1.00
H1       0.47237    0.27558    0.80721   1.00
H1       0.53306    0.28522    0.80107   1.00
C5       0.47835    0.22698    0.68162   1.00
C5       0.51998    0.22282    0.68230   1.00
H1       0.40451    0.27685    0.80831   1.00
H1       0.60091    0.28373    0.79948   1.00
H1       0.40052    0.23353    0.69483   1.00
H1       0.59848    0.22675    0.69216   1.00
C6       0.45515    0.21690    0.64539   1.00
C6       0.54119    0.20168    0.64980   1.00
H2       0.43345    0.23959    0.64031   1.00
H2       0.56310    0.18246    0.66250   1.00
H2       0.47286    0.21900    0.61916   1.00
H2       0.52228    0.18095    0.63501   1.00
C6       0.43606    0.17537    0.64717   1.00
C6       0.55942    0.22994    0.61880   1.00
H2       0.42292    0.17088    0.67589   1.00
H2       0.57383    0.25422    0.63365   1.00
C6       0.40459    0.16522    0.61565   1.00
C6       0.58911    0.21221    0.58894   1.00
H2       0.45949    0.15383    0.64520   1.00
H2       0.53546    0.24315    0.60243   1.00
C6       0.36735    0.19052    0.62044   1.00
C6       0.62708    0.19836    0.60934   1.00
C6       0.42074    0.17025    0.57373   1.00
C6       0.57107    0.17770    0.56598   1.00
C6       0.39245    0.12187    0.62084   1.00
C6       0.60054    0.24438    0.55914   1.00
H2       0.35558    0.18810    0.64996   1.00
H2       0.64020    0.22190    0.62634   1.00
H2       0.37330    0.22121    0.61478   1.00
H2       0.62154    0.17402    0.62900   1.00
H2       0.34459    0.18140    0.60012   1.00
H2       0.64863    0.18857    0.58803   1.00
H2       0.39955    0.16046    0.55206   1.00
H2       0.59098    0.16738    0.54335   1.00
H2       0.42725    0.20078    0.56761   1.00
H2       0.56494    0.15315    0.58525   1.00
H2       0.44745    0.15337    0.56983   1.00
H2       0.54385    0.18646    0.55200   1.00
H2       0.38042    0.11681    0.64991   1.00
H2       0.61383    0.26933    0.57385   1.00
H2       0.37025    0.11345    0.59959   1.00
H2       0.62149    0.23345    0.53778   1.00
H2       0.41739    0.10245    0.61700   1.00
H2       0.57502    0.25482    0.54320   1.00
C4       0.25134    0.01975    0.75460   1.00
C4       0.25279    -0.02191   0.75514   1.00
C3       0.21781    0.04103    0.76692   1.00
C3       0.22252    -0.04504   0.77180   1.00
C3       0.28440    0.04146    0.74127   1.00
C3       0.28558    -0.04170   0.73856   1.00
C2       0.24905    0.10405    0.75534   1.00
C2       0.25479    -0.10622   0.75453   1.00
C3       0.21669    0.08189    0.76749   1.00
C3       0.22333    -0.08591   0.77137   1.00
C3       0.28216    0.08304    0.74252   1.00
C3       0.28518    -0.08336   0.73851   1.00
H1       0.19279    0.02763    0.77558   1.00
H1       0.19893    -0.03306   0.78522   1.00
C5       0.31838    0.02165    0.72698   1.00
C5       0.31770    -0.01998   0.72282   1.00
H1       0.19169    0.09549    0.77685   1.00
H1       0.20052    -0.10091   0.78373   1.00
H1       0.30517    0.09948    0.73353   1.00
H1       0.30784    -0.09848   0.72675   1.00
C6       0.35461    0.04485    0.71690   1.00
C6       0.35020    -0.04119   0.70168   1.00
H2       0.35969    0.06655    0.73959   1.00
H2       0.33750    -0.06310   0.68246   1.00
H2       0.38084    0.02714    0.71900   1.00
H2       0.36499    -0.02228   0.68095   1.00
C6       0.35283    0.06394    0.67537   1.00
C6       0.38120    -0.05942   0.72994   1.00
H2       0.32411    0.07708    0.67088   1.00
H2       0.36635    -0.07383   0.75422   1.00
C6       0.38435    0.09541    0.66522   1.00
C6       0.41106    -0.08911   0.71221   1.00
H2       0.35480    0.04051    0.65383   1.00
H2       0.39757    -0.03546   0.74315   1.00
C6       0.37956    0.13265    0.69052   1.00
C6       0.39066    -0.12708   0.69836   1.00
C6       0.42627    0.07926    0.67025   1.00
C6       0.43402    -0.07107   0.67770   1.00
C6       0.37916    0.10755    0.62187   1.00
C6       0.44086    -0.10054   0.74438   1.00
H2       0.35004    0.14442    0.68810   1.00
H2       0.37366    -0.14020   0.72190   1.00
H2       0.38522    0.12670    0.72121   1.00
H2       0.37100    -0.12154   0.67402   1.00
H2       0.39988    0.15541    0.68140   1.00
H2       0.41197    -0.14863   0.68857   1.00
H2       0.44794    0.10045    0.66046   1.00
H2       0.45665    -0.09098   0.66738   1.00
H2       0.43239    0.07275    0.70078   1.00
H2       0.41475    -0.06494   0.65315   1.00
H2       0.43017    0.05255    0.65337   1.00
H2       0.44800    -0.04385   0.68646   1.00
H2       0.35009    0.11958    0.61681   1.00
H2       0.42615    -0.11383   0.76933   1.00
H2       0.40041    0.12975    0.61345   1.00
H2       0.46222    -0.12149   0.73345   1.00
H2       0.38300    0.08261    0.60245   1.00
H2       0.45680    -0.07502   0.75482   1.00
C4       0.25460    0.25134    0.51975   1.00
C4       0.25514    0.25279    0.47809   1.00
C3       0.26692    0.21781    0.54103   1.00
C3       0.27180    0.22252    0.45496   1.00
C3       0.24127    0.28440    0.54146   1.00
C3       0.23856    0.28558    0.45830   1.00
C2       0.25534    0.24905    0.60405   1.00
C2       0.25453    0.25479    0.39378   1.00
C3       0.26749    0.21669    0.58189   1.00
C3       0.27137    0.22333    0.41409   1.00
C3       0.24252    0.28216    0.58304   1.00
C3       0.23851    0.28518    0.41664   1.00
H1       0.27558    0.19279    0.52763   1.00
H1       0.28522    0.19893    0.46694   1.00
C5       0.22698    0.31838    0.52165   1.00
C5       0.22282    0.31770    0.48002   1.00
H1       0.27685    0.19169    0.59549   1.00
H1       0.28373    0.20052    0.39909   1.00
H1       0.23353    0.30517    0.59948   1.00
H1       0.22675    0.30784    0.40152   1.00
C6       0.21690    0.35461    0.54485   1.00
C6       0.20168    0.35020    0.45881   1.00
H2       0.23959    0.35969    0.56655   1.00
H2       0.18246    0.33750    0.43690   1.00
H2       0.21900    0.38084    0.52714   1.00
H2       0.18095    0.36499    0.47772   1.00
C6       0.17537    0.35283    0.56394   1.00
C6       0.22994    0.38120    0.44058   1.00
H2       0.17088    0.32411    0.57708   1.00
H2       0.25422    0.36635    0.42617   1.00
C6       0.16522    0.38435    0.59541   1.00
C6       0.21221    0.41106    0.41089   1.00
H2       0.15383    0.35480    0.54051   1.00
H2       0.24315    0.39757    0.46454   1.00
C6       0.19052    0.37956    0.63265   1.00
C6       0.19836    0.39066    0.37292   1.00
C6       0.17025    0.42627    0.57926   1.00
C6       0.17770    0.43402    0.42893   1.00
C6       0.12187    0.37916    0.60755   1.00
C6       0.24438    0.44086    0.39946   1.00
H2       0.18810    0.35004    0.64442   1.00
H2       0.22190    0.37366    0.35980   1.00
H2       0.22121    0.38522    0.62670   1.00
H2       0.17402    0.37100    0.37846   1.00
H2       0.18140    0.39988    0.65541   1.00
H2       0.18857    0.41197    0.35137   1.00
H2       0.16046    0.44794    0.60045   1.00
H2       0.16738    0.45665    0.40902   1.00
H2       0.20078    0.43239    0.57275   1.00
H2       0.15315    0.41475    0.43506   1.00
H2       0.15337    0.43017    0.55255   1.00
H2       0.18646    0.44800    0.45615   1.00
H2       0.11681    0.35009    0.61958   1.00
H2       0.26933    0.42615    0.38617   1.00
H2       0.11345    0.40041    0.62975   1.00
H2       0.23345    0.46222    0.37851   1.00
H2       0.10245    0.38300    0.58261   1.00
H2       0.25482    0.45680    0.42498   1.00
C4       0.25460    0.74866    0.48025   1.00
C4       0.25514    0.74721    0.52191   1.00
C3       0.26692    0.78219    0.45897   1.00
C3       0.27180    0.77748    0.54504   1.00
C3       0.24127    0.71560    0.45854   1.00
C3       0.23856    0.71442    0.54170   1.00
C2       0.25534    0.75095    0.39595   1.00
C2       0.25453    0.74521    0.60622   1.00
C3       0.26749    0.78331    0.41811   1.00
C3       0.27137    0.77667    0.58591   1.00
C3       0.24252    0.71784    0.41696   1.00
C3       0.23851    0.71482    0.58336   1.00
H1       0.27558    0.80721    0.47237   1.00
H1       0.28522    0.80107    0.53306   1.00
C5       0.22698    0.68162    0.47835   1.00
C5       0.22282    0.68230    0.51998   1.00
H1       0.27685    0.80831    0.40451   1.00
H1       0.28373    0.79948    0.60091   1.00
H1       0.23353    0.69483    0.40052   1.00
H1       0.22675    0.69216    0.59848   1.00
C6       0.21690    0.64539    0.45515   1.00
C6       0.20168    0.64980    0.54119   1.00
H2       0.23959    0.64031    0.43345   1.00
H2       0.18246    0.66250    0.56310   1.00
H2       0.21900    0.61916    0.47286   1.00
H2       0.18095    0.63501    0.52228   1.00
C6       0.17537    0.64717    0.43606   1.00
C6       0.22994    0.61880    0.55942   1.00
H2       0.17088    0.67589    0.42292   1.00
H2       0.25422    0.63365    0.57383   1.00
C6       0.16522    0.61565    0.40459   1.00
C6       0.21221    0.58894    0.58911   1.00
H2       0.15383    0.64520    0.45949   1.00
H2       0.24315    0.60243    0.53546   1.00
C6       0.19052    0.62044    0.36735   1.00
C6       0.19836    0.60934    0.62708   1.00
C6       0.17025    0.57373    0.42074   1.00
C6       0.17770    0.56598    0.57107   1.00
C6       0.12187    0.62084    0.39245   1.00
C6       0.24438    0.55914    0.60054   1.00
H2       0.18810    0.64996    0.35558   1.00
H2       0.22190    0.62634    0.64020   1.00
H2       0.22121    0.61478    0.37330   1.00
H2       0.17402    0.62900    0.62154   1.00
H2       0.18140    0.60012    0.34459   1.00
H2       0.18857    0.58803    0.64863   1.00
H2       0.16046    0.55206    0.39955   1.00
H2       0.16738    0.54335    0.59098   1.00
H2       0.20078    0.56761    0.42725   1.00
H2       0.15315    0.58525    0.56494   1.00
H2       0.15337    0.56983    0.44745   1.00
H2       0.18646    0.55200    0.54385   1.00
H2       0.11681    0.64991    0.38042   1.00
H2       0.26933    0.57385    0.61383   1.00
H2       0.11345    0.59959    0.37025   1.00
H2       0.23345    0.53778    0.62149   1.00
H2       0.10245    0.61700    0.41739   1.00
H2       0.25482    0.54320    0.57502   1.00
C4       0.24866    0.98025    0.25460   1.00
C4       0.24721    1.02191    0.25514   1.00
C3       0.28219    0.95897    0.26692   1.00
C3       0.27748    1.04504    0.27180   1.00
C3       0.21560    0.95854    0.24127   1.00
C3       0.21442    1.04170    0.23856   1.00
C2       0.25095    0.89595    0.25534   1.00
C2       0.24521    1.10622    0.25453   1.00
C3       0.28331    0.91811    0.26749   1.00
C3       0.27667    1.08591    0.27137   1.00
C3       0.21784    0.91696    0.24252   1.00
C3       0.21482    1.08336    0.23851   1.00
H1       0.30721    0.97237    0.27558   1.00
H1       0.30107    1.03306    0.28522   1.00
C5       0.18162    0.97835    0.22698   1.00
C5       0.18230    1.01998    0.22282   1.00
H1       0.30831    0.90451    0.27685   1.00
H1       0.29948    1.10091    0.28373   1.00
H1       0.19483    0.90052    0.23353   1.00
H1       0.19216    1.09848    0.22675   1.00
C6       0.14539    0.95515    0.21690   1.00
C6       0.14980    1.04119    0.20168   1.00
H2       0.14031    0.93345    0.23959   1.00
H2       0.16250    1.06310    0.18246   1.00
H2       0.11916    0.97286    0.21900   1.00
H2       0.13501    1.02228    0.18095   1.00
C6       0.14717    0.93606    0.17537   1.00
C6       0.11880    1.05942    0.22994   1.00
H2       0.17589    0.92292    0.17088   1.00
H2       0.13365    1.07383    0.25422   1.00
C6       0.11565    0.90459    0.16522   1.00
C6       0.08894    1.08911    0.21221   1.00
H2       0.14520    0.95949    0.15383   1.00
H2       0.10243    1.03546    0.24315   1.00
C6       0.12044    0.86735    0.19052   1.00
C6       0.10934    1.12708    0.19836   1.00
C6       0.07373    0.92074    0.17025   1.00
C6       0.06598    1.07107    0.17770   1.00
C6       0.12084    0.89245    0.12187   1.00
C6       0.05914    1.10054    0.24438   1.00
H2       0.14996    0.85558    0.18810   1.00
H2       0.12634    1.14020    0.22190   1.00
H2       0.11478    0.87330    0.22121   1.00
H2       0.12900    1.12154    0.17402   1.00
H2       0.10012    0.84459    0.18140   1.00
H2       0.08803    1.14863    0.18857   1.00
H2       0.05206    0.89955    0.16046   1.00
H2       0.04335    1.09098    0.16738   1.00
H2       0.06761    0.92725    0.20078   1.00
H2       0.08525    1.06494    0.15315   1.00
H2       0.06983    0.94745    0.15337   1.00
H2       0.05200    1.04385    0.18646   1.00
H2       0.14991    0.88042    0.11681   1.00
H2       0.07385    1.11383    0.26933   1.00
H2       0.09959    0.87025    0.11345   1.00
H2       0.03778    1.12149    0.23345   1.00
H2       0.11700    0.91739    0.10245   1.00
H2       0.04320    1.07502    0.25482   1.00
C4       0.01975    0.75460    0.25134   1.00
C4       -0.02191   0.75514    0.25279   1.00
C3       0.04103    0.76692    0.21781   1.00
C3       -0.04504   0.77180    0.22252   1.00
C3       0.04146    0.74127    0.28440   1.00
C3       -0.04170   0.73856    0.28558   1.00
C2       0.10405    0.75534    0.24905   1.00
C2       -0.10622   0.75453    0.25479   1.00
C3       0.08189    0.76749    0.21669   1.00
C3       -0.08591   0.77137    0.22333   1.00
C3       0.08304    0.74252    0.28216   1.00
C3       -0.08336   0.73851    0.28518   1.00
H1       0.02763    0.77558    0.19279   1.00
H1       -0.03306   0.78522    0.19893   1.00
C5       0.02165    0.72698    0.31838   1.00
C5       -0.01998   0.72282    0.31770   1.00
H1       0.09549    0.77685    0.19169   1.00
H1       -0.10091   0.78373    0.20052   1.00
H1       0.09948    0.73353    0.30517   1.00
H1       -0.09848   0.72675    0.30784   1.00
C6       0.04485    0.71690    0.35461   1.00
C6       -0.04119   0.70168    0.35020   1.00
H2       0.06655    0.73959    0.35969   1.00
H2       -0.06310   0.68246    0.33750   1.00
H2       0.02714    0.71900    0.38084   1.00
H2       -0.02228   0.68095    0.36499   1.00
C6       0.06394    0.67537    0.35283   1.00
C6       -0.05942   0.72994    0.38120   1.00
H2       0.07708    0.67088    0.32411   1.00
H2       -0.07383   0.75422    0.36635   1.00
C6       0.09541    0.66522    0.38435   1.00
C6       -0.08911   0.71221    0.41106   1.00
H2       0.04051    0.65383    0.35480   1.00
H2       -0.03546   0.74315    0.39757   1.00
C6       0.13265    0.69052    0.37956   1.00
C6       -0.12708   0.69836    0.39066   1.00
C6       0.07926    0.67025    0.42627   1.00
C6       -0.07107   0.67770    0.43402   1.00
C6       0.10755    0.62187    0.37916   1.00
C6       -0.10054   0.74438    0.44086   1.00
H2       0.14442    0.68810    0.35004   1.00
H2       -0.14020   0.72190    0.37366   1.00
H2       0.12670    0.72121    0.38522   1.00
H2       -0.12154   0.67402    0.37100   1.00
H2       0.15541    0.68140    0.39988   1.00
H2       -0.14863   0.68857    0.41197   1.00
H2       0.10045    0.66046    0.44794   1.00
H2       -0.09098   0.66738    0.45665   1.00
H2       0.07275    0.70078    0.43239   1.00
H2       -0.06494   0.65315    0.41475   1.00
H2       0.05255    0.65337    0.43017   1.00
H2       -0.04385   0.68646    0.44800   1.00
H2       0.11958    0.61681    0.35009   1.00
H2       -0.11383   0.76933    0.42615   1.00
H2       0.12975    0.61345    0.40041   1.00
H2       -0.12149   0.73345    0.46222   1.00
H2       0.08261    0.60245    0.38300   1.00
H2       -0.07502   0.75482    0.45680   1.00
C4       0.48025    0.75460    0.24866   1.00
C4       0.52191    0.75514    0.24721   1.00
C3       0.45897    0.76692    0.28219   1.00
C3       0.54504    0.77180    0.27748   1.00
C3       0.45854    0.74127    0.21560   1.00
C3       0.54170    0.73856    0.21442   1.00
C2       0.39595    0.75534    0.25095   1.00
C2       0.60622    0.75453    0.24521   1.00
C3       0.41811    0.76749    0.28331   1.00
C3       0.58591    0.77137    0.27667   1.00
C3       0.41696    0.74252    0.21784   1.00
C3       0.58336    0.73851    0.21482   1.00
H1       0.47237    0.77558    0.30721   1.00
H1       0.53306    0.78522    0.30107   1.00
C5       0.47835    0.72698    0.18162   1.00
C5       0.51998    0.72282    0.18230   1.00
H1       0.40451    0.77685    0.30831   1.00
H1       0.60091    0.78373    0.29948   1.00
H1       0.40052    0.73353    0.19483   1.00
H1       0.59848    0.72675    0.19216   1.00
C6       0.45515    0.71690    0.14539   1.00
C6       0.54119    0.70168    0.14980   1.00
H2       0.43345    0.73959    0.14031   1.00
H2       0.56310    0.68246    0.16250   1.00
H2       0.47286    0.71900    0.11916   1.00
H2       0.52228    0.68095    0.13501   1.00
C6       0.43606    0.67537    0.14717   1.00
C6       0.55942    0.72994    0.11880   1.00
H2       0.42292    0.67088    0.17589   1.00
H2       0.57383    0.75422    0.13365   1.00
C6       0.40459    0.66522    0.11565   1.00
C6       0.58911    0.71221    0.08894   1.00
H2       0.45949    0.65383    0.14520   1.00
H2       0.53546    0.74315    0.10243   1.00
C6       0.36735    0.69052    0.12044   1.00
C6       0.62708    0.69836    0.10934   1.00
C6       0.42074    0.67025    0.07373   1.00
C6       0.57107    0.67770    0.06598   1.00
C6       0.39245    0.62187    0.12084   1.00
C6       0.60054    0.74438    0.05914   1.00
H2       0.35558    0.68810    0.14996   1.00
H2       0.64020    0.72190    0.12634   1.00
H2       0.37330    0.72121    0.11478   1.00
H2       0.62154    0.67402    0.12900   1.00
H2       0.34459    0.68140    0.10012   1.00
H2       0.64863    0.68857    0.08803   1.00
H2       0.39955    0.66046    0.05206   1.00
H2       0.59098    0.66738    0.04335   1.00
H2       0.42725    0.70078    0.06761   1.00
H2       0.56494    0.65315    0.08525   1.00
H2       0.44745    0.65337    0.06983   1.00
H2       0.54385    0.68646    0.05200   1.00
H2       0.38042    0.61681    0.14991   1.00
H2       0.61383    0.76933    0.07385   1.00
H2       0.37025    0.61345    0.09959   1.00
H2       0.62149    0.73345    0.03778   1.00
H2       0.41739    0.60245    0.11700   1.00
H2       0.57502    0.75482    0.04320   1.00
C4       0.25134    0.51975    0.25460   1.00
C4       0.25279    0.47809    0.25514   1.00
C3       0.21781    0.54103    0.26692   1.00
C3       0.22252    0.45496    0.27180   1.00
C3       0.28440    0.54146    0.24127   1.00
C3       0.28558    0.45830    0.23856   1.00
C2       0.24905    0.60405    0.25534   1.00
C2       0.25479    0.39378    0.25453   1.00
C3       0.21669    0.58189    0.26749   1.00
C3       0.22333    0.41409    0.27137   1.00
C3       0.28216    0.58304    0.24252   1.00
C3       0.28518    0.41664    0.23851   1.00
H1       0.19279    0.52763    0.27558   1.00
H1       0.19893    0.46694    0.28522   1.00
C5       0.31838    0.52165    0.22698   1.00
C5       0.31770    0.48002    0.22282   1.00
H1       0.19169    0.59549    0.27685   1.00
H1       0.20052    0.39909    0.28373   1.00
H1       0.30517    0.59948    0.23353   1.00
H1       0.30784    0.40152    0.22675   1.00
C6       0.35461    0.54485    0.21690   1.00
C6       0.35020    0.45881    0.20168   1.00
H2       0.35969    0.56655    0.23959   1.00
H2       0.33750    0.43690    0.18246   1.00
H2       0.38084    0.52714    0.21900   1.00
H2       0.36499    0.47772    0.18095   1.00
C6       0.35283    0.56394    0.17537   1.00
C6       0.38120    0.44058    0.22994   1.00
H2       0.32411    0.57708    0.17088   1.00
H2       0.36635    0.42617    0.25422   1.00
C6       0.38435    0.59541    0.16522   1.00
C6       0.41106    0.41089    0.21221   1.00
H2       0.35480    0.54051    0.15383   1.00
H2       0.39757    0.46454    0.24315   1.00
C6       0.37956    0.63265    0.19052   1.00
C6       0.39066    0.37292    0.19836   1.00
C6       0.42627    0.57926    0.17025   1.00
C6       0.43402    0.42893    0.17770   1.00
C6       0.37916    0.60755    0.12187   1.00
C6       0.44086    0.39946    0.24438   1.00
H2       0.35004    0.64442    0.18810   1.00
H2       0.37366    0.35980    0.22190   1.00
H2       0.38522    0.62670    0.22121   1.00
H2       0.37100    0.37846    0.17402   1.00
H2       0.39988    0.65541    0.18140   1.00
H2       0.41197    0.35137    0.18857   1.00
H2       0.44794    0.60045    0.16046   1.00
H2       0.45665    0.40902    0.16738   1.00
H2       0.43239    0.57275    0.20078   1.00
H2       0.41475    0.43506    0.15315   1.00
H2       0.43017    0.55255    0.15337   1.00
H2       0.44800    0.45615    0.18646   1.00
H2       0.35009    0.61958    0.11681   1.00
H2       0.42615    0.38617    0.26933   1.00
H2       0.40041    0.62975    0.11345   1.00
H2       0.46222    0.37851    0.23345   1.00
H2       0.38300    0.58261    0.10245   1.00
H2       0.45680    0.42498    0.25482   1.00
C4       0.25460    0.75134    0.01975   1.00
C4       0.25514    0.75279    -0.02191   1.00
C3       0.26692    0.71781    0.04103   1.00
C3       0.27180    0.72252    -0.04504   1.00
C3       0.24127    0.78440    0.04146   1.00
C3       0.23856    0.78558    -0.04170   1.00
C2       0.25534    0.74905    0.10405   1.00
C2       0.25453    0.75479    -0.10622   1.00
C3       0.26749    0.71669    0.08189   1.00
C3       0.27137    0.72333    -0.08591   1.00
C3       0.24252    0.78216    0.08304   1.00
C3       0.23851    0.78518    -0.08336   1.00
H1       0.27558    0.69279    0.02763   1.00
H1       0.28522    0.69893    -0.03306   1.00
C5       0.22698    0.81838    0.02165   1.00
C5       0.22282    0.81770    -0.01998   1.00
H1       0.27685    0.69169    0.09549   1.00
H1       0.28373    0.70052    -0.10091   1.00
H1       0.23353    0.80517    0.09948   1.00
H1       0.22675    0.80784    -0.09848   1.00
C6       0.21690    0.85461    0.04485   1.00
C6       0.20168    0.85020    -0.04119   1.00
H2       0.23959    0.85969    0.06655   1.00
H2       0.18246    0.83750    -0.06310   1.00
H2       0.21900    0.88084    0.02714   1.00
H2       0.18095    0.86499    -0.02228   1.00
C6       0.17537    0.85283    0.06394   1.00
C6       0.22994    0.88120    -0.05942   1.00
H2       0.17088    0.82411    0.07708   1.00
H2       0.25422    0.86635    -0.07383   1.00
C6       0.16522    0.88435    0.09541   1.00
C6       0.21221    0.91106    -0.08911   1.00
H2       0.15383    0.85480    0.04051   1.00
H2       0.24315    0.89757    -0.03546   1.00
C6       0.19052    0.87956    0.13265   1.00
C6       0.19836    0.89066    -0.12708   1.00
C6       0.17025    0.92627    0.07926   1.00
C6       0.17770    0.93402    -0.07107   1.00
C6       0.12187    0.87916    0.10755   1.00
C6       0.24438    0.94086    -0.10054   1.00
H2       0.18810    0.85004    0.14442   1.00
H2       0.22190    0.87366    -0.14020   1.00
H2       0.22121    0.88522    0.12670   1.00
H2       0.17402    0.87100    -0.12154   1.00
H2       0.18140    0.89988    0.15541   1.00
H2       0.18857    0.91197    -0.14863   1.00
H2       0.16046    0.94794    0.10045   1.00
H2       0.16738    0.95665    -0.09098   1.00
H2       0.20078    0.93239    0.07275   1.00
H2       0.15315    0.91475    -0.06494   1.00
H2       0.15337    0.93017    0.05255   1.00
H2       0.18646    0.94800    -0.04385   1.00
H2       0.11681    0.85009    0.11958   1.00
H2       0.26933    0.92615    -0.11383   1.00
H2       0.11345    0.90041    0.12975   1.00
H2       0.23345    0.96222    -0.12149   1.00
H2       0.10245    0.88300    0.08261   1.00
H2       0.25482    0.95680    -0.07502   1.00
C4       0.75460    0.24866    0.48025   1.00
C4       0.75514    0.24721    0.52191   1.00
C3       0.76692    0.28219    0.45897   1.00
C3       0.77180    0.27748    0.54504   1.00
C3       0.74127    0.21560    0.45854   1.00
C3       0.73856    0.21442    0.54170   1.00
C2       0.75534    0.25095    0.39595   1.00
C2       0.75453    0.24521    0.60622   1.00
C3       0.76749    0.28331    0.41811   1.00
C3       0.77137    0.27667    0.58591   1.00
C3       0.74252    0.21784    0.41696   1.00
C3       0.73851    0.21482    0.58336   1.00
H1       0.77558    0.30721    0.47237   1.00
H1       0.78522    0.30107    0.53306   1.00
C5       0.72698    0.18162    0.47835   1.00
C5       0.72282    0.18230    0.51998   1.00
H1       0.77685    0.30831    0.40451   1.00
H1       0.78373    0.29948    0.60091   1.00
H1       0.73353    0.19483    0.40052   1.00
H1       0.72675    0.19216    0.59848   1.00
C6       0.71690    0.14539    0.45515   1.00
C6       0.70168    0.14980    0.54119   1.00
H2       0.73959    0.14031    0.43345   1.00
H2       0.68246    0.16250    0.56310   1.00
H2       0.71900    0.11916    0.47286   1.00
H2       0.68095    0.13501    0.52228   1.00
C6       0.67537    0.14717    0.43606   1.00
C6       0.72994    0.11880    0.55942   1.00
H2       0.67088    0.17589    0.42292   1.00
H2       0.75422    0.13365    0.57383   1.00
C6       0.66522    0.11565    0.40459   1.00
C6       0.71221    0.08894    0.58911   1.00
H2       0.65383    0.14520    0.45949   1.00
H2       0.74315    0.10243    0.53546   1.00
C6       0.69052    0.12044    0.36735   1.00
C6       0.69836    0.10934    0.62708   1.00
C6       0.67025    0.07373    0.42074   1.00
C6       0.67770    0.06598    0.57107   1.00
C6       0.62187    0.12084    0.39245   1.00
C6       0.74438    0.05914    0.60054   1.00
H2       0.68810    0.14996    0.35558   1.00
H2       0.72190    0.12634    0.64020   1.00
H2       0.72121    0.11478    0.37330   1.00
H2       0.67402    0.12900    0.62154   1.00
H2       0.68140    0.10012    0.34459   1.00
H2       0.68857    0.08803    0.64863   1.00
H2       0.66046    0.05206    0.39955   1.00
H2       0.66738    0.04335    0.59098   1.00
H2       0.70078    0.06761    0.42725   1.00
H2       0.65315    0.08525    0.56494   1.00
H2       0.65337    0.06983    0.44745   1.00
H2       0.68646    0.05200    0.54385   1.00
H2       0.61681    0.14991    0.38042   1.00
H2       0.76933    0.07385    0.61383   1.00
H2       0.61345    0.09959    0.37025   1.00
H2       0.73345    0.03778    0.62149   1.00
H2       0.60245    0.11700    0.41739   1.00
H2       0.75482    0.04320    0.57502   1.00
C4       0.74866    0.48025    0.25460   1.00
C4       0.74721    0.52191    0.25514   1.00
C3       0.78219    0.45897    0.26692   1.00
C3       0.77748    0.54504    0.27180   1.00
C3       0.71560    0.45854    0.24127   1.00
C3       0.71442    0.54170    0.23856   1.00
C2       0.75095    0.39595    0.25534   1.00
C2       0.74521    0.60622    0.25453   1.00
C3       0.78331    0.41811    0.26749   1.00
C3       0.77667    0.58591    0.27137   1.00
C3       0.71784    0.41696    0.24252   1.00
C3       0.71482    0.58336    0.23851   1.00
H1       0.80721    0.47237    0.27558   1.00
H1       0.80107    0.53306    0.28522   1.00
C5       0.68162    0.47835    0.22698   1.00
C5       0.68230    0.51998    0.22282   1.00
H1       0.80831    0.40451    0.27685   1.00
H1       0.79948    0.60091    0.28373   1.00
H1       0.69483    0.40052    0.23353   1.00
H1       0.69216    0.59848    0.22675   1.00
C6       0.64539    0.45515    0.21690   1.00
C6       0.64980    0.54119    0.20168   1.00
H2       0.64031    0.43345    0.23959   1.00
H2       0.66250    0.56310    0.18246   1.00
H2       0.61916    0.47286    0.21900   1.00
H2       0.63501    0.52228    0.18095   1.00
C6       0.64717    0.43606    0.17537   1.00
C6       0.61880    0.55942    0.22994   1.00
H2       0.67589    0.42292    0.17088   1.00
H2       0.63365    0.57383    0.25422   1.00
C6       0.61565    0.40459    0.16522   1.00
C6       0.58894    0.58911    0.21221   1.00
H2       0.64520    0.45949    0.15383   1.00
H2       0.60243    0.53546    0.24315   1.00
C6       0.62044    0.36735    0.19052   1.00
C6       0.60934    0.62708    0.19836   1.00
C6       0.57373    0.42074    0.17025   1.00
C6       0.56598    0.57107    0.17770   1.00
C6       0.62084    0.39245    0.12187   1.00
C6       0.55914    0.60054    0.24438   1.00
H2       0.64996    0.35558    0.18810   1.00
H2       0.62634    0.64020    0.22190   1.00
H2       0.61478    0.37330    0.22121   1.00
H2       0.62900    0.62154    0.17402   1.00
H2       0.60012    0.34459    0.18140   1.00
H2       0.58803    0.64863    0.18857   1.00
H2       0.55206    0.39955    0.16046   1.00
H2       0.54335    0.59098    0.16738   1.00
H2       0.56761    0.42725    0.20078   1.00
H2       0.58525    0.56494    0.15315   1.00
H2       0.56983    0.44745    0.15337   1.00
H2       0.55200    0.54385    0.18646   1.00
H2       0.64991    0.38042    0.11681   1.00
H2       0.57385    0.61383    0.26933   1.00
H2       0.59959    0.37025    0.11345   1.00
H2       0.53778    0.62149    0.23345   1.00
H2       0.61700    0.41739    0.10245   1.00
H2       0.54320    0.57502    0.25482   1.00
C4       0.51975    0.25460    0.25134   1.00
C4       0.47809    0.25514    0.25279   1.00
C3       0.54103    0.26692    0.21781   1.00
C3       0.45496    0.27180    0.22252   1.00
C3       0.54146    0.24127    0.28440   1.00
C3       0.45830    0.23856    0.28558   1.00
C2       0.60405    0.25534    0.24905   1.00
C2       0.39378    0.25453    0.25479   1.00
C3       0.58189    0.26749    0.21669   1.00
C3       0.41409    0.27137    0.22333   1.00
C3       0.58304    0.24252    0.28216   1.00
C3       0.41664    0.23851    0.28518   1.00
H1       0.52763    0.27558    0.19279   1.00
H1       0.46694    0.28522    0.19893   1.00
C5       0.52165    0.22698    0.31838   1.00
C5       0.48002    0.22282    0.31770   1.00
H1       0.59549    0.27685    0.19169   1.00
H1       0.39909    0.28373    0.20052   1.00
H1       0.59948    0.23353    0.30517   1.00
H1       0.40152    0.22675    0.30784   1.00
C6       0.54485    0.21690    0.35461   1.00
C6       0.45881    0.20168    0.35020   1.00
H2       0.56655    0.23959    0.35969   1.00
H2       0.43690    0.18246    0.33750   1.00
H2       0.52714    0.21900    0.38084   1.00
H2       0.47772    0.18095    0.36499   1.00
C6       0.56394    0.17537    0.35283   1.00
C6       0.44058    0.22994    0.38120   1.00
H2       0.57708    0.17088    0.32411   1.00
H2       0.42617    0.25422    0.36635   1.00
C6       0.59541    0.16522    0.38435   1.00
C6       0.41089    0.21221    0.41106   1.00
H2       0.54051    0.15383    0.35480   1.00
H2       0.46454    0.24315    0.39757   1.00
C6       0.63265    0.19052    0.37956   1.00
C6       0.37292    0.19836    0.39066   1.00
C6       0.57926    0.17025    0.42627   1.00
C6       0.42893    0.17770    0.43402   1.00
C6       0.60755    0.12187    0.37916   1.00
C6       0.39946    0.24438    0.44086   1.00
H2       0.64442    0.18810    0.35004   1.00
H2       0.35980    0.22190    0.37366   1.00
H2       0.62670    0.22121    0.38522   1.00
H2       0.37846    0.17402    0.37100   1.00
H2       0.65541    0.18140    0.39988   1.00
H2       0.35137    0.18857    0.41197   1.00
H2       0.60045    0.16046    0.44794   1.00
H2       0.40902    0.16738    0.45665   1.00
H2       0.57275    0.20078    0.43239   1.00
H2       0.43506    0.15315    0.41475   1.00
H2       0.55255    0.15337    0.43017   1.00
H2       0.45615    0.18646    0.44800   1.00
H2       0.61958    0.11681    0.35009   1.00
H2       0.38617    0.26933    0.42615   1.00
H2       0.62975    0.11345    0.40041   1.00
H2       0.37851    0.23345    0.46222   1.00
H2       0.58261    0.10245    0.38300   1.00
H2       0.42498    0.25482    0.45680   1.00
C4       0.98025    0.25460    0.24866   1.00
C4       1.02191    0.25514    0.24721   1.00
C3       0.95897    0.26692    0.28219   1.00
C3       1.04504    0.27180    0.27748   1.00
C3       0.95854    0.24127    0.21560   1.00
C3       1.04170    0.23856    0.21442   1.00
C2       0.89595    0.25534    0.25095   1.00
C2       1.10622    0.25453    0.24521   1.00
C3       0.91811    0.26749    0.28331   1.00
C3       1.08591    0.27137    0.27667   1.00
C3       0.91696    0.24252    0.21784   1.00
C3       1.08336    0.23851    0.21482   1.00
H1       0.97237    0.27558    0.30721   1.00
H1       1.03306    0.28522    0.30107   1.00
C5       0.97835    0.22698    0.18162   1.00
C5       1.01998    0.22282    0.18230   1.00
H1       0.90451    0.27685    0.30831   1.00
H1       1.10091    0.28373    0.29948   1.00
H1       0.90052    0.23353    0.19483   1.00
H1       1.09848    0.22675    0.19216   1.00
C6       0.95515    0.21690    0.14539   1.00
C6       1.04119    0.20168    0.14980   1.00
H2       0.93345    0.23959    0.14031   1.00
H2       1.06310    0.18246    0.16250   1.00
H2       0.97286    0.21900    0.11916   1.00
H2       1.02228    0.18095    0.13501   1.00
C6       0.93606    0.17537    0.14717   1.00
C6       1.05942    0.22994    0.11880   1.00
H2       0.92292    0.17088    0.17589   1.00
H2       1.07383    0.25422    0.13365   1.00
C6       0.90459    0.16522    0.11565   1.00
C6       1.08911    0.21221    0.08894   1.00
H2       0.95949    0.15383    0.14520   1.00
H2       1.03546    0.24315    0.10243   1.00
C6       0.86735    0.19052    0.12044   1.00
C6       1.12708    0.19836    0.10934   1.00
C6       0.92074    0.17025    0.07373   1.00
C6       1.07107    0.17770    0.06598   1.00
C6       0.89245    0.12187    0.12084   1.00
C6       1.10054    0.24438    0.05914   1.00
H2       0.85558    0.18810    0.14996   1.00
H2       1.14020    0.22190    0.12634   1.00
H2       0.87330    0.22121    0.11478   1.00
H2       1.12154    0.17402    0.12900   1.00
H2       0.84459    0.18140    0.10012   1.00
H2       1.14863    0.18857    0.08803   1.00
H2       0.89955    0.16046    0.05206   1.00
H2       1.09098    0.16738    0.04335   1.00
H2       0.92725    0.20078    0.06761   1.00
H2       1.06494    0.15315    0.08525   1.00
H2       0.94745    0.15337    0.06983   1.00
H2       1.04385    0.18646    0.05200   1.00
H2       0.88042    0.11681    0.14991   1.00
H2       1.11383    0.26933    0.07385   1.00
H2       0.87025    0.11345    0.09959   1.00
H2       1.12149    0.23345    0.03778   1.00
H2       0.91739    0.10245    0.11700   1.00
H2       1.07502    0.25482    0.04320   1.00
C4       0.75134    0.01975    0.25460   1.00
C4       0.75279    -0.02191   0.25514   1.00
C3       0.71781    0.04103    0.26692   1.00
C3       0.72252    -0.04504   0.27180   1.00
C3       0.78440    0.04146    0.24127   1.00
C3       0.78558    -0.04170   0.23856   1.00
C2       0.74905    0.10405    0.25534   1.00
C2       0.75479    -0.10622   0.25453   1.00
C3       0.71669    0.08189    0.26749   1.00
C3       0.72333    -0.08591   0.27137   1.00
C3       0.78216    0.08304    0.24252   1.00
C3       0.78518    -0.08336   0.23851   1.00
H1       0.69279    0.02763    0.27558   1.00
H1       0.69893    -0.03306   0.28522   1.00
C5       0.81838    0.02165    0.22698   1.00
C5       0.81770    -0.01998   0.22282   1.00
H1       0.69169    0.09549    0.27685   1.00
H1       0.70052    -0.10091   0.28373   1.00
H1       0.80517    0.09948    0.23353   1.00
H1       0.80784    -0.09848   0.22675   1.00
C6       0.85461    0.04485    0.21690   1.00
C6       0.85020    -0.04119   0.20168   1.00
H2       0.85969    0.06655    0.23959   1.00
H2       0.83750    -0.06310   0.18246   1.00
H2       0.88084    0.02714    0.21900   1.00
H2       0.86499    -0.02228   0.18095   1.00
C6       0.85283    0.06394    0.17537   1.00
C6       0.88120    -0.05942   0.22994   1.00
H2       0.82411    0.07708    0.17088   1.00
H2       0.86635    -0.07383   0.25422   1.00
C6       0.88435    0.09541    0.16522   1.00
C6       0.91106    -0.08911   0.21221   1.00
H2       0.85480    0.04051    0.15383   1.00
H2       0.89757    -0.03546   0.24315   1.00
C6       0.87956    0.13265    0.19052   1.00
C6       0.89066    -0.12708   0.19836   1.00
C6       0.92627    0.07926    0.17025   1.00
C6       0.93402    -0.07107   0.17770   1.00
C6       0.87916    0.10755    0.12187   1.00
C6       0.94086    -0.10054   0.24438   1.00
H2       0.85004    0.14442    0.18810   1.00
H2       0.87366    -0.14020   0.22190   1.00
H2       0.88522    0.12670    0.22121   1.00
H2       0.87100    -0.12154   0.17402   1.00
H2       0.89988    0.15541    0.18140   1.00
H2       0.91197    -0.14863   0.18857   1.00
H2       0.94794    0.10045    0.16046   1.00
H2       0.95665    -0.09098   0.16738   1.00
H2       0.93239    0.07275    0.20078   1.00
H2       0.91475    -0.06494   0.15315   1.00
H2       0.93017    0.05255    0.15337   1.00
H2       0.94800    -0.04385   0.18646   1.00
H2       0.85009    0.11958    0.11681   1.00
H2       0.92615    -0.11383   0.26933   1.00
H2       0.90041    0.12975    0.11345   1.00
H2       0.96222    -0.12149   0.23345   1.00
H2       0.88300    0.08261    0.10245   1.00
H2       0.95680    -0.07502   0.25482   1.00
C4       0.75460    0.25134    0.01975   1.00
C4       0.75514    0.25279    -0.02191   1.00
C3       0.76692    0.21781    0.04103   1.00
C3       0.77180    0.22252    -0.04504   1.00
C3       0.74127    0.28440    0.04146   1.00
C3       0.73856    0.28558    -0.04170   1.00
C2       0.75534    0.24905    0.10405   1.00
C2       0.75453    0.25479    -0.10622   1.00
C3       0.76749    0.21669    0.08189   1.00
C3       0.77137    0.22333    -0.08591   1.00
C3       0.74252    0.28216    0.08304   1.00
C3       0.73851    0.28518    -0.08336   1.00
H1       0.77558    0.19279    0.02763   1.00
H1       0.78522    0.19893    -0.03306   1.00
C5       0.72698    0.31838    0.02165   1.00
C5       0.72282    0.31770    -0.01998   1.00
H1       0.77685    0.19169    0.09549   1.00
H1       0.78373    0.20052    -0.10091   1.00
H1       0.73353    0.30517    0.09948   1.00
H1       0.72675    0.30784    -0.09848   1.00
C6       0.71690    0.35461    0.04485   1.00
C6       0.70168    0.35020    -0.04119   1.00
H2       0.73959    0.35969    0.06655   1.00
H2       0.68246    0.33750    -0.06310   1.00
H2       0.71900    0.38084    0.02714   1.00
H2       0.68095    0.36499    -0.02228   1.00
C6       0.67537    0.35283    0.06394   1.00
C6       0.72994    0.38120    -0.05942   1.00
H2       0.67088    0.32411    0.07708   1.00
H2       0.75422    0.36635    -0.07383   1.00
C6       0.66522    0.38435    0.09541   1.00
C6       0.71221    0.41106    -0.08911   1.00
H2       0.65383    0.35480    0.04051   1.00
H2       0.74315    0.39757    -0.03546   1.00
C6       0.69052    0.37956    0.13265   1.00
C6       0.69836    0.39066    -0.12708   1.00
C6       0.67025    0.42627    0.07926   1.00
C6       0.67770    0.43402    -0.07107   1.00
C6       0.62187    0.37916    0.10755   1.00
C6       0.74438    0.44086    -0.10054   1.00
H2       0.68810    0.35004    0.14442   1.00
H2       0.72190    0.37366    -0.14020   1.00
H2       0.72121    0.38522    0.12670   1.00
H2       0.67402    0.37100    -0.12154   1.00
H2       0.68140    0.39988    0.15541   1.00
H2       0.68857    0.41197    -0.14863   1.00
H2       0.66046    0.44794    0.10045   1.00
H2       0.66738    0.45665    -0.09098   1.00
H2       0.70078    0.43239    0.07275   1.00
H2       0.65315    0.41475    -0.06494   1.00
H2       0.65337    0.43017    0.05255   1.00
H2       0.68646    0.44800    -0.04385   1.00
H2       0.61681    0.35009    0.11958   1.00
H2       0.76933    0.42615    -0.11383   1.00
H2       0.61345    0.40041    0.12975   1.00
H2       0.73345    0.46222    -0.12149   1.00
H2       0.60245    0.38300    0.08261   1.00
H2       0.75482    0.45680    -0.07502   1.00
