data_IRMOF10_SG202_Ligand12_label_r.

_audit_creation_method             'generated by an auxiliary program of Tobunporous'

_symmetry_space_group_name_H-M     'P 1'
_symmetry_Int_Tables_number        1
_symmetry_cell_setting             triclinic

_cell_length_a                    34.2800
_cell_length_b                    34.2800
_cell_length_c                    34.2800
_cell_angle_alpha                 90.0000
_cell_angle_beta                  90.0000
_cell_angle_gamma                 90.0000

loop_
_atom_site_label
_atom_site_fract_x
_atom_site_fract_y
_atom_site_fract_z
_atom_site_occupancy
O1       0.75000    0.75000    0.75000   1.00
Zn1      0.71720    0.78280    0.78280   1.00
Zn1      0.78280    0.71720    0.78280   1.00
Zn1      0.78280    0.78280    0.71720   1.00
Zn1      0.71720    0.71720    0.71720   1.00
O2       0.72650    0.77350    0.83820   1.00
O2       0.72650    0.83820    0.77350   1.00
O2       0.66180    0.77350    0.77350   1.00
O2       0.77350    0.72650    0.83820   1.00
O2       0.83820    0.72650    0.77350   1.00
O2       0.77350    0.66180    0.77350   1.00
O2       0.77350    0.83820    0.72650   1.00
O2       0.83820    0.77350    0.72650   1.00
O2       0.77350    0.77350    0.66180   1.00
O2       0.66180    0.72650    0.72650   1.00
O2       0.72650    0.66180    0.72650   1.00
O2       0.72650    0.72650    0.66180   1.00
C1       0.75000    0.75000    0.85520   1.00
C1       0.75000    0.85520    0.75000   1.00
C1       0.64480    0.75000    0.75000   1.00
C1       0.85520    0.75000    0.75000   1.00
C1       0.75000    0.64480    0.75000   1.00
C1       0.75000    0.75000    0.64480   1.00
O1       0.25000    0.25000    0.75000   1.00
Zn1      0.21720    0.28280    0.78280   1.00
Zn1      0.28280    0.21720    0.78280   1.00
Zn1      0.28280    0.28280    0.71720   1.00
Zn1      0.21720    0.21720    0.71720   1.00
O2       0.22650    0.27350    0.83820   1.00
O2       0.22650    0.33820    0.77350   1.00
O2       0.16180    0.27350    0.77350   1.00
O2       0.27350    0.22650    0.83820   1.00
O2       0.33820    0.22650    0.77350   1.00
O2       0.27350    0.16180    0.77350   1.00
O2       0.27350    0.33820    0.72650   1.00
O2       0.33820    0.27350    0.72650   1.00
O2       0.27350    0.27350    0.66180   1.00
O2       0.16180    0.22650    0.72650   1.00
O2       0.22650    0.16180    0.72650   1.00
O2       0.22650    0.22650    0.66180   1.00
C1       0.25000    0.25000    0.85520   1.00
C1       0.25000    0.35520    0.75000   1.00
C1       0.14480    0.25000    0.75000   1.00
C1       0.35520    0.25000    0.75000   1.00
C1       0.25000    0.14480    0.75000   1.00
C1       0.25000    0.25000    0.64480   1.00
O1       0.25000    0.75000    0.25000   1.00
Zn1      0.21720    0.78280    0.28280   1.00
Zn1      0.28280    0.71720    0.28280   1.00
Zn1      0.28280    0.78280    0.21720   1.00
Zn1      0.21720    0.71720    0.21720   1.00
O2       0.22650    0.77350    0.33820   1.00
O2       0.22650    0.83820    0.27350   1.00
O2       0.16180    0.77350    0.27350   1.00
O2       0.27350    0.72650    0.33820   1.00
O2       0.33820    0.72650    0.27350   1.00
O2       0.27350    0.66180    0.27350   1.00
O2       0.27350    0.83820    0.22650   1.00
O2       0.33820    0.77350    0.22650   1.00
O2       0.27350    0.77350    0.16180   1.00
O2       0.16180    0.72650    0.22650   1.00
O2       0.22650    0.66180    0.22650   1.00
O2       0.22650    0.72650    0.16180   1.00
C1       0.25000    0.75000    0.35520   1.00
C1       0.25000    0.85520    0.25000   1.00
C1       0.14480    0.75000    0.25000   1.00
C1       0.35520    0.75000    0.25000   1.00
C1       0.25000    0.64480    0.25000   1.00
C1       0.25000    0.75000    0.14480   1.00
O1       0.75000    0.25000    0.25000   1.00
Zn1      0.71720    0.28280    0.28280   1.00
Zn1      0.78280    0.21720    0.28280   1.00
Zn1      0.78280    0.28280    0.21720   1.00
Zn1      0.71720    0.21720    0.21720   1.00
O2       0.72650    0.27350    0.33820   1.00
O2       0.72650    0.33820    0.27350   1.00
O2       0.66180    0.27350    0.27350   1.00
O2       0.77350    0.22650    0.33820   1.00
O2       0.83820    0.22650    0.27350   1.00
O2       0.77350    0.16180    0.27350   1.00
O2       0.77350    0.33820    0.22650   1.00
O2       0.83820    0.27350    0.22650   1.00
O2       0.77350    0.27350    0.16180   1.00
O2       0.66180    0.22650    0.22650   1.00
O2       0.72650    0.16180    0.22650   1.00
O2       0.72650    0.22650    0.16180   1.00
C1       0.75000    0.25000    0.35520   1.00
C1       0.75000    0.35520    0.25000   1.00
C1       0.64480    0.25000    0.25000   1.00
C1       0.85520    0.25000    0.25000   1.00
C1       0.75000    0.14480    0.25000   1.00
C1       0.75000    0.25000    0.14480   1.00
O1       0.25000    0.25000    0.25000   1.00
Zn1      0.28280    0.21720    0.21720   1.00
Zn1      0.21720    0.28280    0.21720   1.00
Zn1      0.21720    0.21720    0.28280   1.00
Zn1      0.28280    0.28280    0.28280   1.00
O2       0.27350    0.22650    0.16180   1.00
O2       0.27350    0.16180    0.22650   1.00
O2       0.33820    0.22650    0.22650   1.00
O2       0.22650    0.27350    0.16180   1.00
O2       0.16180    0.27350    0.22650   1.00
O2       0.22650    0.33820    0.22650   1.00
O2       0.22650    0.16180    0.27350   1.00
O2       0.16180    0.22650    0.27350   1.00
O2       0.22650    0.22650    0.33820   1.00
O2       0.33820    0.27350    0.27350   1.00
O2       0.27350    0.33820    0.27350   1.00
O2       0.27350    0.27350    0.33820   1.00
C1       0.25000    0.25000    0.14480   1.00
C1       0.25000    0.14480    0.25000   1.00
C1       0.35520    0.25000    0.25000   1.00
C1       0.14480    0.25000    0.25000   1.00
C1       0.25000    0.35520    0.25000   1.00
C1       0.25000    0.25000    0.35520   1.00
O1       0.75000    0.75000    0.25000   1.00
Zn1      0.78280    0.71720    0.21720   1.00
Zn1      0.71720    0.78280    0.21720   1.00
Zn1      0.71720    0.71720    0.28280   1.00
Zn1      0.78280    0.78280    0.28280   1.00
O2       0.77350    0.72650    0.16180   1.00
O2       0.77350    0.66180    0.22650   1.00
O2       0.83820    0.72650    0.22650   1.00
O2       0.72650    0.77350    0.16180   1.00
O2       0.66180    0.77350    0.22650   1.00
O2       0.72650    0.83820    0.22650   1.00
O2       0.72650    0.66180    0.27350   1.00
O2       0.66180    0.72650    0.27350   1.00
O2       0.72650    0.72650    0.33820   1.00
O2       0.83820    0.77350    0.27350   1.00
O2       0.77350    0.83820    0.27350   1.00
O2       0.77350    0.77350    0.33820   1.00
C1       0.75000    0.75000    0.14480   1.00
C1       0.75000    0.64480    0.25000   1.00
C1       0.85520    0.75000    0.25000   1.00
C1       0.64480    0.75000    0.25000   1.00
C1       0.75000    0.85520    0.25000   1.00
C1       0.75000    0.75000    0.35520   1.00
O1       0.75000    0.25000    0.75000   1.00
Zn1      0.78280    0.21720    0.71720   1.00
Zn1      0.71720    0.28280    0.71720   1.00
Zn1      0.71720    0.21720    0.78280   1.00
Zn1      0.78280    0.28280    0.78280   1.00
O2       0.77350    0.22650    0.66180   1.00
O2       0.77350    0.16180    0.72650   1.00
O2       0.83820    0.22650    0.72650   1.00
O2       0.72650    0.27350    0.66180   1.00
O2       0.66180    0.27350    0.72650   1.00
O2       0.72650    0.33820    0.72650   1.00
O2       0.72650    0.16180    0.77350   1.00
O2       0.66180    0.22650    0.77350   1.00
O2       0.72650    0.22650    0.83820   1.00
O2       0.83820    0.27350    0.77350   1.00
O2       0.77350    0.33820    0.77350   1.00
O2       0.77350    0.27350    0.83820   1.00
C1       0.75000    0.25000    0.64480   1.00
C1       0.75000    0.14480    0.75000   1.00
C1       0.85520    0.25000    0.75000   1.00
C1       0.64480    0.25000    0.75000   1.00
C1       0.75000    0.35520    0.75000   1.00
C1       0.75000    0.25000    0.85520   1.00
O1       0.25000    0.75000    0.75000   1.00
Zn1      0.28280    0.71720    0.71720   1.00
Zn1      0.21720    0.78280    0.71720   1.00
Zn1      0.21720    0.71720    0.78280   1.00
Zn1      0.28280    0.78280    0.78280   1.00
O2       0.27350    0.72650    0.66180   1.00
O2       0.27350    0.66180    0.72650   1.00
O2       0.33820    0.72650    0.72650   1.00
O2       0.22650    0.77350    0.66180   1.00
O2       0.16180    0.77350    0.72650   1.00
O2       0.22650    0.83820    0.72650   1.00
O2       0.22650    0.66180    0.77350   1.00
O2       0.16180    0.72650    0.77350   1.00
O2       0.22650    0.72650    0.83820   1.00
O2       0.33820    0.77350    0.77350   1.00
O2       0.27350    0.83820    0.77350   1.00
O2       0.27350    0.77350    0.83820   1.00
C1       0.25000    0.75000    0.64480   1.00
C1       0.25000    0.64480    0.75000   1.00
C1       0.35520    0.75000    0.75000   1.00
C1       0.14480    0.75000    0.75000   1.00
C1       0.25000    0.85520    0.75000   1.00
C1       0.25000    0.75000    0.85520   1.00
C4       0.74980    0.74925    1.02067   1.00
C4       0.75020    0.75075    0.97933   1.00
C3       0.71489    0.75480    1.04244   1.00
C3       0.71719    0.76339    0.95756   1.00
C4       0.78500    0.74234    1.04150   1.00
C4       0.78414    0.73914    0.95850   1.00
C2       0.74940    0.75018    1.10352   1.00
C2       0.74939    0.75015    0.89648   1.00
C3       0.71496    0.75559    1.08310   1.00
C3       0.71686    0.76268    0.91690   1.00
C3       0.78396    0.74309    1.08306   1.00
C3       0.78287    0.73901    0.91694   1.00
H1       0.68671    0.75771    1.02888   1.00
H1       0.69133    0.77496    0.97112   1.00
C5       0.82011    0.73431    1.02065   1.00
C5       0.81857    0.72854    0.97935   1.00
H1       0.68796    0.76020    1.09886   1.00
H1       0.69117    0.77218    0.90114   1.00
H1       0.80954    0.73764    1.10053   1.00
H1       0.80775    0.73094    0.89947   1.00
C6       0.85912    0.73346    1.04234   1.00
C6       0.85277    0.70978    0.95766   1.00
H2       0.88282    0.74507    1.02358   1.00
H2       0.85948    0.75380    1.06737   1.00
C6       0.86848    0.69222    1.05724   1.00
H2       0.86750    0.68788    0.97642   1.00
H2       0.84292    0.69198    0.93263   1.00
C6       0.88150    0.74081    0.94276   1.00
H2       0.86930    0.67095    1.03274   1.00
C6       0.90771    0.69175    1.07832   1.00
H2       0.84520    0.68226    1.07760   1.00
C6       0.91571    0.72161    0.92168   1.00
H2       0.86631    0.76108    0.92240   1.00
H2       0.89284    0.75883    0.96726   1.00
H2       0.93150    0.70079    1.05822   1.00
H2       0.90719    0.71180    1.10380   1.00
H2       0.91411    0.66182    1.08898   1.00
H2       0.93179    0.70189    0.94178   1.00
H2       0.90524    0.70451    0.89620   1.00
H2       0.93622    0.74434    0.91102   1.00
C4       0.74925    1.02067    0.74980   1.00
C4       0.75075    0.97933    0.75020   1.00
C3       0.75480    1.04244    0.71489   1.00
C3       0.76339    0.95756    0.71719   1.00
C4       0.74234    1.04150    0.78500   1.00
C4       0.73914    0.95850    0.78414   1.00
C2       0.75018    1.10352    0.74940   1.00
C2       0.75015    0.89648    0.74939   1.00
C3       0.75559    1.08310    0.71496   1.00
C3       0.76268    0.91690    0.71686   1.00
C3       0.74309    1.08306    0.78396   1.00
C3       0.73901    0.91694    0.78287   1.00
H1       0.75771    1.02888    0.68671   1.00
H1       0.77496    0.97112    0.69133   1.00
C5       0.73431    1.02065    0.82011   1.00
C5       0.72854    0.97935    0.81857   1.00
H1       0.76020    1.09886    0.68796   1.00
H1       0.77218    0.90114    0.69117   1.00
H1       0.73764    1.10053    0.80954   1.00
H1       0.73094    0.89947    0.80775   1.00
C6       0.73346    1.04234    0.85912   1.00
C6       0.70978    0.95766    0.85277   1.00
H2       0.74507    1.02358    0.88282   1.00
H2       0.75380    1.06737    0.85948   1.00
C6       0.69222    1.05724    0.86848   1.00
H2       0.68788    0.97642    0.86750   1.00
H2       0.69198    0.93263    0.84292   1.00
C6       0.74081    0.94276    0.88150   1.00
H2       0.67095    1.03274    0.86930   1.00
C6       0.69175    1.07832    0.90771   1.00
H2       0.68226    1.07760    0.84520   1.00
C6       0.72161    0.92168    0.91571   1.00
H2       0.76108    0.92240    0.86631   1.00
H2       0.75883    0.96726    0.89284   1.00
H2       0.70079    1.05822    0.93150   1.00
H2       0.71180    1.10380    0.90719   1.00
H2       0.66182    1.08898    0.91411   1.00
H2       0.70189    0.94178    0.93179   1.00
H2       0.70451    0.89620    0.90524   1.00
H2       0.74434    0.91102    0.93622   1.00
C4       0.47933    0.74980    0.75075   1.00
C4       0.52067    0.75020    0.74925   1.00
C3       0.45756    0.71489    0.74520   1.00
C3       0.54244    0.71719    0.73661   1.00
C4       0.45850    0.78500    0.75766   1.00
C4       0.54150    0.78414    0.76086   1.00
C2       0.39648    0.74940    0.74982   1.00
C2       0.60352    0.74939    0.74985   1.00
C3       0.41690    0.71496    0.74441   1.00
C3       0.58310    0.71686    0.73732   1.00
C3       0.41694    0.78396    0.75691   1.00
C3       0.58306    0.78287    0.76099   1.00
H1       0.47112    0.68671    0.74229   1.00
H1       0.52888    0.69133    0.72504   1.00
C5       0.47935    0.82011    0.76569   1.00
C5       0.52065    0.81857    0.77146   1.00
H1       0.40114    0.68796    0.73980   1.00
H1       0.59886    0.69117    0.72782   1.00
H1       0.39947    0.80954    0.76236   1.00
H1       0.60053    0.80775    0.76906   1.00
C6       0.45766    0.85912    0.76654   1.00
C6       0.54234    0.85277    0.79022   1.00
H2       0.47642    0.88282    0.75493   1.00
H2       0.43263    0.85948    0.74620   1.00
C6       0.44276    0.86848    0.80778   1.00
H2       0.52358    0.86750    0.81212   1.00
H2       0.56737    0.84292    0.80802   1.00
C6       0.55724    0.88150    0.75919   1.00
H2       0.46726    0.86930    0.82905   1.00
C6       0.42168    0.90771    0.80825   1.00
H2       0.42240    0.84520    0.81774   1.00
C6       0.57832    0.91571    0.77839   1.00
H2       0.57760    0.86631    0.73892   1.00
H2       0.53274    0.89284    0.74117   1.00
H2       0.44178    0.93150    0.79921   1.00
H2       0.39620    0.90719    0.78820   1.00
H2       0.41102    0.91411    0.83818   1.00
H2       0.55822    0.93179    0.79811   1.00
H2       0.60380    0.90524    0.79549   1.00
H2       0.58898    0.93622    0.75566   1.00
C4       1.02067    0.74980    0.74925   1.00
C4       0.97933    0.75020    0.75075   1.00
C3       1.04244    0.71489    0.75480   1.00
C3       0.95756    0.71719    0.76339   1.00
C4       1.04150    0.78500    0.74234   1.00
C4       0.95850    0.78414    0.73914   1.00
C2       1.10352    0.74940    0.75018   1.00
C2       0.89648    0.74939    0.75015   1.00
C3       1.08310    0.71496    0.75559   1.00
C3       0.91690    0.71686    0.76268   1.00
C3       1.08306    0.78396    0.74309   1.00
C3       0.91694    0.78287    0.73901   1.00
H1       1.02888    0.68671    0.75771   1.00
H1       0.97112    0.69133    0.77496   1.00
C5       1.02065    0.82011    0.73431   1.00
C5       0.97935    0.81857    0.72854   1.00
H1       1.09886    0.68796    0.76020   1.00
H1       0.90114    0.69117    0.77218   1.00
H1       1.10053    0.80954    0.73764   1.00
H1       0.89947    0.80775    0.73094   1.00
C6       1.04234    0.85912    0.73346   1.00
C6       0.95766    0.85277    0.70978   1.00
H2       1.02358    0.88282    0.74507   1.00
H2       1.06737    0.85948    0.75380   1.00
C6       1.05724    0.86848    0.69222   1.00
H2       0.97642    0.86750    0.68788   1.00
H2       0.93263    0.84292    0.69198   1.00
C6       0.94276    0.88150    0.74081   1.00
H2       1.03274    0.86930    0.67095   1.00
C6       1.07832    0.90771    0.69175   1.00
H2       1.07760    0.84520    0.68226   1.00
C6       0.92168    0.91571    0.72161   1.00
H2       0.92240    0.86631    0.76108   1.00
H2       0.96726    0.89284    0.75883   1.00
H2       1.05822    0.93150    0.70079   1.00
H2       1.10380    0.90719    0.71180   1.00
H2       1.08898    0.91411    0.66182   1.00
H2       0.94178    0.93179    0.70189   1.00
H2       0.89620    0.90524    0.70451   1.00
H2       0.91102    0.93622    0.74434   1.00
C4       0.75075    0.47933    0.74980   1.00
C4       0.74925    0.52067    0.75020   1.00
C3       0.74520    0.45756    0.71489   1.00
C3       0.73661    0.54244    0.71719   1.00
C4       0.75766    0.45850    0.78500   1.00
C4       0.76086    0.54150    0.78414   1.00
C2       0.74982    0.39648    0.74940   1.00
C2       0.74985    0.60352    0.74939   1.00
C3       0.74441    0.41690    0.71496   1.00
C3       0.73732    0.58310    0.71686   1.00
C3       0.75691    0.41694    0.78396   1.00
C3       0.76099    0.58306    0.78287   1.00
H1       0.74229    0.47112    0.68671   1.00
H1       0.72504    0.52888    0.69133   1.00
C5       0.76569    0.47935    0.82011   1.00
C5       0.77146    0.52065    0.81857   1.00
H1       0.73980    0.40114    0.68796   1.00
H1       0.72782    0.59886    0.69117   1.00
H1       0.76236    0.39947    0.80954   1.00
H1       0.76906    0.60053    0.80775   1.00
C6       0.76654    0.45766    0.85912   1.00
C6       0.79022    0.54234    0.85277   1.00
H2       0.75493    0.47642    0.88282   1.00
H2       0.74620    0.43263    0.85948   1.00
C6       0.80778    0.44276    0.86848   1.00
H2       0.81212    0.52358    0.86750   1.00
H2       0.80802    0.56737    0.84292   1.00
C6       0.75919    0.55724    0.88150   1.00
H2       0.82905    0.46726    0.86930   1.00
C6       0.80825    0.42168    0.90771   1.00
H2       0.81774    0.42240    0.84520   1.00
C6       0.77839    0.57832    0.91571   1.00
H2       0.73892    0.57760    0.86631   1.00
H2       0.74117    0.53274    0.89284   1.00
H2       0.79921    0.44178    0.93150   1.00
H2       0.78820    0.39620    0.90719   1.00
H2       0.83818    0.41102    0.91411   1.00
H2       0.79811    0.55822    0.93179   1.00
H2       0.79549    0.60380    0.90524   1.00
H2       0.75566    0.58898    0.93622   1.00
C4       0.74980    0.75075    0.47933   1.00
C4       0.75020    0.74925    0.52067   1.00
C3       0.71489    0.74520    0.45756   1.00
C3       0.71719    0.73661    0.54244   1.00
C4       0.78500    0.75766    0.45850   1.00
C4       0.78414    0.76086    0.54150   1.00
C2       0.74940    0.74982    0.39648   1.00
C2       0.74939    0.74985    0.60352   1.00
C3       0.71496    0.74441    0.41690   1.00
C3       0.71686    0.73732    0.58310   1.00
C3       0.78396    0.75691    0.41694   1.00
C3       0.78287    0.76099    0.58306   1.00
H1       0.68671    0.74229    0.47112   1.00
H1       0.69133    0.72504    0.52888   1.00
C5       0.82011    0.76569    0.47935   1.00
C5       0.81857    0.77146    0.52065   1.00
H1       0.68796    0.73980    0.40114   1.00
H1       0.69117    0.72782    0.59886   1.00
H1       0.80954    0.76236    0.39947   1.00
H1       0.80775    0.76906    0.60053   1.00
C6       0.85912    0.76654    0.45766   1.00
C6       0.85277    0.79022    0.54234   1.00
H2       0.88282    0.75493    0.47642   1.00
H2       0.85948    0.74620    0.43263   1.00
C6       0.86848    0.80778    0.44276   1.00
H2       0.86750    0.81212    0.52358   1.00
H2       0.84292    0.80802    0.56737   1.00
C6       0.88150    0.75919    0.55724   1.00
H2       0.86930    0.82905    0.46726   1.00
C6       0.90771    0.80825    0.42168   1.00
H2       0.84520    0.81774    0.42240   1.00
C6       0.91571    0.77839    0.57832   1.00
H2       0.86631    0.73892    0.57760   1.00
H2       0.89284    0.74117    0.53274   1.00
H2       0.93150    0.79921    0.44178   1.00
H2       0.90719    0.78820    0.39620   1.00
H2       0.91411    0.83818    0.41102   1.00
H2       0.93179    0.79811    0.55822   1.00
H2       0.90524    0.79549    0.60380   1.00
H2       0.93622    0.75566    0.58898   1.00
C4       0.24980    0.24925    1.02067   1.00
C4       0.25020    0.25075    0.97933   1.00
C3       0.21489    0.25480    1.04244   1.00
C3       0.21719    0.26339    0.95756   1.00
C4       0.28500    0.24234    1.04150   1.00
C4       0.28414    0.23914    0.95850   1.00
C2       0.24940    0.25018    1.10352   1.00
C2       0.24939    0.25015    0.89648   1.00
C3       0.21496    0.25559    1.08310   1.00
C3       0.21686    0.26268    0.91690   1.00
C3       0.28396    0.24309    1.08306   1.00
C3       0.28287    0.23901    0.91694   1.00
H1       0.18671    0.25771    1.02888   1.00
H1       0.19133    0.27496    0.97112   1.00
C5       0.32011    0.23431    1.02065   1.00
C5       0.31857    0.22854    0.97935   1.00
H1       0.18796    0.26020    1.09886   1.00
H1       0.19117    0.27218    0.90114   1.00
H1       0.30954    0.23764    1.10053   1.00
H1       0.30775    0.23094    0.89947   1.00
C6       0.35912    0.23346    1.04234   1.00
C6       0.35277    0.20978    0.95766   1.00
H2       0.38282    0.24507    1.02358   1.00
H2       0.35948    0.25380    1.06737   1.00
C6       0.36848    0.19222    1.05724   1.00
H2       0.36750    0.18788    0.97642   1.00
H2       0.34292    0.19198    0.93263   1.00
C6       0.38150    0.24081    0.94276   1.00
H2       0.36930    0.17095    1.03274   1.00
C6       0.40771    0.19175    1.07832   1.00
H2       0.34520    0.18226    1.07760   1.00
C6       0.41571    0.22161    0.92168   1.00
H2       0.36631    0.26108    0.92240   1.00
H2       0.39284    0.25883    0.96726   1.00
H2       0.43150    0.20079    1.05822   1.00
H2       0.40719    0.21180    1.10380   1.00
H2       0.41411    0.16182    1.08898   1.00
H2       0.43179    0.20189    0.94178   1.00
H2       0.40524    0.20451    0.89620   1.00
H2       0.43622    0.24434    0.91102   1.00
C4       0.24925    0.52067    0.74980   1.00
C4       0.25075    0.47933    0.75020   1.00
C3       0.25480    0.54244    0.71489   1.00
C3       0.26339    0.45756    0.71719   1.00
C4       0.24234    0.54150    0.78500   1.00
C4       0.23914    0.45850    0.78414   1.00
C2       0.25018    0.60352    0.74940   1.00
C2       0.25015    0.39648    0.74939   1.00
C3       0.25559    0.58310    0.71496   1.00
C3       0.26268    0.41690    0.71686   1.00
C3       0.24309    0.58306    0.78396   1.00
C3       0.23901    0.41694    0.78287   1.00
H1       0.25771    0.52888    0.68671   1.00
H1       0.27496    0.47112    0.69133   1.00
C5       0.23431    0.52065    0.82011   1.00
C5       0.22854    0.47935    0.81857   1.00
H1       0.26020    0.59886    0.68796   1.00
H1       0.27218    0.40114    0.69117   1.00
H1       0.23764    0.60053    0.80954   1.00
H1       0.23094    0.39947    0.80775   1.00
C6       0.23346    0.54234    0.85912   1.00
C6       0.20978    0.45766    0.85277   1.00
H2       0.24507    0.52358    0.88282   1.00
H2       0.25380    0.56737    0.85948   1.00
C6       0.19222    0.55724    0.86848   1.00
H2       0.18788    0.47642    0.86750   1.00
H2       0.19198    0.43263    0.84292   1.00
C6       0.24081    0.44276    0.88150   1.00
H2       0.17095    0.53274    0.86930   1.00
C6       0.19175    0.57832    0.90771   1.00
H2       0.18226    0.57760    0.84520   1.00
C6       0.22161    0.42168    0.91571   1.00
H2       0.26108    0.42240    0.86631   1.00
H2       0.25883    0.46726    0.89284   1.00
H2       0.20079    0.55822    0.93150   1.00
H2       0.21180    0.60380    0.90719   1.00
H2       0.16182    0.58898    0.91411   1.00
H2       0.20189    0.44178    0.93179   1.00
H2       0.20451    0.39620    0.90524   1.00
H2       0.24434    0.41102    0.93622   1.00
C4       -0.02067   0.24980    0.75075   1.00
C4       0.02067    0.25020    0.74925   1.00
C3       -0.04244   0.21489    0.74520   1.00
C3       0.04244    0.21719    0.73661   1.00
C4       -0.04150   0.28500    0.75766   1.00
C4       0.04150    0.28414    0.76086   1.00
C2       -0.10352   0.24940    0.74982   1.00
C2       0.10352    0.24939    0.74985   1.00
C3       -0.08310   0.21496    0.74441   1.00
C3       0.08310    0.21686    0.73732   1.00
C3       -0.08306   0.28396    0.75691   1.00
C3       0.08306    0.28287    0.76099   1.00
H1       -0.02888   0.18671    0.74229   1.00
H1       0.02888    0.19133    0.72504   1.00
C5       -0.02065   0.32011    0.76569   1.00
C5       0.02065    0.31857    0.77146   1.00
H1       -0.09886   0.18796    0.73980   1.00
H1       0.09886    0.19117    0.72782   1.00
H1       -0.10053   0.30954    0.76236   1.00
H1       0.10053    0.30775    0.76906   1.00
C6       -0.04234   0.35912    0.76654   1.00
C6       0.04234    0.35277    0.79022   1.00
H2       -0.02358   0.38282    0.75493   1.00
H2       -0.06737   0.35948    0.74620   1.00
C6       -0.05724   0.36848    0.80778   1.00
H2       0.02358    0.36750    0.81212   1.00
H2       0.06737    0.34292    0.80802   1.00
C6       0.05724    0.38150    0.75919   1.00
H2       -0.03274   0.36930    0.82905   1.00
C6       -0.07832   0.40771    0.80825   1.00
H2       -0.07760   0.34520    0.81774   1.00
C6       0.07832    0.41571    0.77839   1.00
H2       0.07760    0.36631    0.73892   1.00
H2       0.03274    0.39284    0.74117   1.00
H2       -0.05822   0.43150    0.79921   1.00
H2       -0.10380   0.40719    0.78820   1.00
H2       -0.08898   0.41411    0.83818   1.00
H2       0.05822    0.43179    0.79811   1.00
H2       0.10380    0.40524    0.79549   1.00
H2       0.08898    0.43622    0.75566   1.00
C4       0.52067    0.24980    0.74925   1.00
C4       0.47933    0.25020    0.75075   1.00
C3       0.54244    0.21489    0.75480   1.00
C3       0.45756    0.21719    0.76339   1.00
C4       0.54150    0.28500    0.74234   1.00
C4       0.45850    0.28414    0.73914   1.00
C2       0.60352    0.24940    0.75018   1.00
C2       0.39648    0.24939    0.75015   1.00
C3       0.58310    0.21496    0.75559   1.00
C3       0.41690    0.21686    0.76268   1.00
C3       0.58306    0.28396    0.74309   1.00
C3       0.41694    0.28287    0.73901   1.00
H1       0.52888    0.18671    0.75771   1.00
H1       0.47112    0.19133    0.77496   1.00
C5       0.52065    0.32011    0.73431   1.00
C5       0.47935    0.31857    0.72854   1.00
H1       0.59886    0.18796    0.76020   1.00
H1       0.40114    0.19117    0.77218   1.00
H1       0.60053    0.30954    0.73764   1.00
H1       0.39947    0.30775    0.73094   1.00
C6       0.54234    0.35912    0.73346   1.00
C6       0.45766    0.35277    0.70978   1.00
H2       0.52358    0.38282    0.74507   1.00
H2       0.56737    0.35948    0.75380   1.00
C6       0.55724    0.36848    0.69222   1.00
H2       0.47642    0.36750    0.68788   1.00
H2       0.43263    0.34292    0.69198   1.00
C6       0.44276    0.38150    0.74081   1.00
H2       0.53274    0.36930    0.67095   1.00
C6       0.57832    0.40771    0.69175   1.00
H2       0.57760    0.34520    0.68226   1.00
C6       0.42168    0.41571    0.72161   1.00
H2       0.42240    0.36631    0.76108   1.00
H2       0.46726    0.39284    0.75883   1.00
H2       0.55822    0.43150    0.70079   1.00
H2       0.60380    0.40719    0.71180   1.00
H2       0.58898    0.41411    0.66182   1.00
H2       0.44178    0.43179    0.70189   1.00
H2       0.39620    0.40524    0.70451   1.00
H2       0.41102    0.43622    0.74434   1.00
C4       0.25075    -0.02067   0.74980   1.00
C4       0.24925    0.02067    0.75020   1.00
C3       0.24520    -0.04244   0.71489   1.00
C3       0.23661    0.04244    0.71719   1.00
C4       0.25766    -0.04150   0.78500   1.00
C4       0.26086    0.04150    0.78414   1.00
C2       0.24982    -0.10352   0.74940   1.00
C2       0.24985    0.10352    0.74939   1.00
C3       0.24441    -0.08310   0.71496   1.00
C3       0.23732    0.08310    0.71686   1.00
C3       0.25691    -0.08306   0.78396   1.00
C3       0.26099    0.08306    0.78287   1.00
H1       0.24229    -0.02888   0.68671   1.00
H1       0.22504    0.02888    0.69133   1.00
C5       0.26569    -0.02065   0.82011   1.00
C5       0.27146    0.02065    0.81857   1.00
H1       0.23980    -0.09886   0.68796   1.00
H1       0.22782    0.09886    0.69117   1.00
H1       0.26236    -0.10053   0.80954   1.00
H1       0.26906    0.10053    0.80775   1.00
C6       0.26654    -0.04234   0.85912   1.00
C6       0.29022    0.04234    0.85277   1.00
H2       0.25493    -0.02358   0.88282   1.00
H2       0.24620    -0.06737   0.85948   1.00
C6       0.30778    -0.05724   0.86848   1.00
H2       0.31212    0.02358    0.86750   1.00
H2       0.30802    0.06737    0.84292   1.00
C6       0.25919    0.05724    0.88150   1.00
H2       0.32905    -0.03274   0.86930   1.00
C6       0.30825    -0.07832   0.90771   1.00
H2       0.31774    -0.07760   0.84520   1.00
C6       0.27839    0.07832    0.91571   1.00
H2       0.23892    0.07760    0.86631   1.00
H2       0.24117    0.03274    0.89284   1.00
H2       0.29921    -0.05822   0.93150   1.00
H2       0.28820    -0.10380   0.90719   1.00
H2       0.33818    -0.08898   0.91411   1.00
H2       0.29811    0.05822    0.93179   1.00
H2       0.29549    0.10380    0.90524   1.00
H2       0.25566    0.08898    0.93622   1.00
C4       0.24980    0.25075    0.47933   1.00
C4       0.25020    0.24925    0.52067   1.00
C3       0.21489    0.24520    0.45756   1.00
C3       0.21719    0.23661    0.54244   1.00
C4       0.28500    0.25766    0.45850   1.00
C4       0.28414    0.26086    0.54150   1.00
C2       0.24940    0.24982    0.39648   1.00
C2       0.24939    0.24985    0.60352   1.00
C3       0.21496    0.24441    0.41690   1.00
C3       0.21686    0.23732    0.58310   1.00
C3       0.28396    0.25691    0.41694   1.00
C3       0.28287    0.26099    0.58306   1.00
H1       0.18671    0.24229    0.47112   1.00
H1       0.19133    0.22504    0.52888   1.00
C5       0.32011    0.26569    0.47935   1.00
C5       0.31857    0.27146    0.52065   1.00
H1       0.18796    0.23980    0.40114   1.00
H1       0.19117    0.22782    0.59886   1.00
H1       0.30954    0.26236    0.39947   1.00
H1       0.30775    0.26906    0.60053   1.00
C6       0.35912    0.26654    0.45766   1.00
C6       0.35277    0.29022    0.54234   1.00
H2       0.38282    0.25493    0.47642   1.00
H2       0.35948    0.24620    0.43263   1.00
C6       0.36848    0.30778    0.44276   1.00
H2       0.36750    0.31212    0.52358   1.00
H2       0.34292    0.30802    0.56737   1.00
C6       0.38150    0.25919    0.55724   1.00
H2       0.36930    0.32905    0.46726   1.00
C6       0.40771    0.30825    0.42168   1.00
H2       0.34520    0.31774    0.42240   1.00
C6       0.41571    0.27839    0.57832   1.00
H2       0.36631    0.23892    0.57760   1.00
H2       0.39284    0.24117    0.53274   1.00
H2       0.43150    0.29921    0.44178   1.00
H2       0.40719    0.28820    0.39620   1.00
H2       0.41411    0.33818    0.41102   1.00
H2       0.43179    0.29811    0.55822   1.00
H2       0.40524    0.29549    0.60380   1.00
H2       0.43622    0.25566    0.58898   1.00
C4       0.24980    0.74925    0.52067   1.00
C4       0.25020    0.75075    0.47933   1.00
C3       0.21489    0.75480    0.54244   1.00
C3       0.21719    0.76339    0.45756   1.00
C4       0.28500    0.74234    0.54150   1.00
C4       0.28414    0.73914    0.45850   1.00
C2       0.24940    0.75018    0.60352   1.00
C2       0.24939    0.75015    0.39648   1.00
C3       0.21496    0.75559    0.58310   1.00
C3       0.21686    0.76268    0.41690   1.00
C3       0.28396    0.74309    0.58306   1.00
C3       0.28287    0.73901    0.41694   1.00
H1       0.18671    0.75771    0.52888   1.00
H1       0.19133    0.77496    0.47112   1.00
C5       0.32011    0.73431    0.52065   1.00
C5       0.31857    0.72854    0.47935   1.00
H1       0.18796    0.76020    0.59886   1.00
H1       0.19117    0.77218    0.40114   1.00
H1       0.30954    0.73764    0.60053   1.00
H1       0.30775    0.73094    0.39947   1.00
C6       0.35912    0.73346    0.54234   1.00
C6       0.35277    0.70978    0.45766   1.00
H2       0.38282    0.74507    0.52358   1.00
H2       0.35948    0.75380    0.56737   1.00
C6       0.36848    0.69222    0.55724   1.00
H2       0.36750    0.68788    0.47642   1.00
H2       0.34292    0.69198    0.43263   1.00
C6       0.38150    0.74081    0.44276   1.00
H2       0.36930    0.67095    0.53274   1.00
C6       0.40771    0.69175    0.57832   1.00
H2       0.34520    0.68226    0.57760   1.00
C6       0.41571    0.72161    0.42168   1.00
H2       0.36631    0.76108    0.42240   1.00
H2       0.39284    0.75883    0.46726   1.00
H2       0.43150    0.70079    0.55822   1.00
H2       0.40719    0.71180    0.60380   1.00
H2       0.41411    0.66182    0.58898   1.00
H2       0.43179    0.70189    0.44178   1.00
H2       0.40524    0.70451    0.39620   1.00
H2       0.43622    0.74434    0.41102   1.00
C4       0.24925    1.02067    0.24980   1.00
C4       0.25075    0.97933    0.25020   1.00
C3       0.25480    1.04244    0.21489   1.00
C3       0.26339    0.95756    0.21719   1.00
C4       0.24234    1.04150    0.28500   1.00
C4       0.23914    0.95850    0.28414   1.00
C2       0.25018    1.10352    0.24940   1.00
C2       0.25015    0.89648    0.24939   1.00
C3       0.25559    1.08310    0.21496   1.00
C3       0.26268    0.91690    0.21686   1.00
C3       0.24309    1.08306    0.28396   1.00
C3       0.23901    0.91694    0.28287   1.00
H1       0.25771    1.02888    0.18671   1.00
H1       0.27496    0.97112    0.19133   1.00
C5       0.23431    1.02065    0.32011   1.00
C5       0.22854    0.97935    0.31857   1.00
H1       0.26020    1.09886    0.18796   1.00
H1       0.27218    0.90114    0.19117   1.00
H1       0.23764    1.10053    0.30954   1.00
H1       0.23094    0.89947    0.30775   1.00
C6       0.23346    1.04234    0.35912   1.00
C6       0.20978    0.95766    0.35277   1.00
H2       0.24507    1.02358    0.38282   1.00
H2       0.25380    1.06737    0.35948   1.00
C6       0.19222    1.05724    0.36848   1.00
H2       0.18788    0.97642    0.36750   1.00
H2       0.19198    0.93263    0.34292   1.00
C6       0.24081    0.94276    0.38150   1.00
H2       0.17095    1.03274    0.36930   1.00
C6       0.19175    1.07832    0.40771   1.00
H2       0.18226    1.07760    0.34520   1.00
C6       0.22161    0.92168    0.41571   1.00
H2       0.26108    0.92240    0.36631   1.00
H2       0.25883    0.96726    0.39284   1.00
H2       0.20079    1.05822    0.43150   1.00
H2       0.21180    1.10380    0.40719   1.00
H2       0.16182    1.08898    0.41411   1.00
H2       0.20189    0.94178    0.43179   1.00
H2       0.20451    0.89620    0.40524   1.00
H2       0.24434    0.91102    0.43622   1.00
C4       -0.02067   0.74980    0.25075   1.00
C4       0.02067    0.75020    0.24925   1.00
C3       -0.04244   0.71489    0.24520   1.00
C3       0.04244    0.71719    0.23661   1.00
C4       -0.04150   0.78500    0.25766   1.00
C4       0.04150    0.78414    0.26086   1.00
C2       -0.10352   0.74940    0.24982   1.00
C2       0.10352    0.74939    0.24985   1.00
C3       -0.08310   0.71496    0.24441   1.00
C3       0.08310    0.71686    0.23732   1.00
C3       -0.08306   0.78396    0.25691   1.00
C3       0.08306    0.78287    0.26099   1.00
H1       -0.02888   0.68671    0.24229   1.00
H1       0.02888    0.69133    0.22504   1.00
C5       -0.02065   0.82011    0.26569   1.00
C5       0.02065    0.81857    0.27146   1.00
H1       -0.09886   0.68796    0.23980   1.00
H1       0.09886    0.69117    0.22782   1.00
H1       -0.10053   0.80954    0.26236   1.00
H1       0.10053    0.80775    0.26906   1.00
C6       -0.04234   0.85912    0.26654   1.00
C6       0.04234    0.85277    0.29022   1.00
H2       -0.02358   0.88282    0.25493   1.00
H2       -0.06737   0.85948    0.24620   1.00
C6       -0.05724   0.86848    0.30778   1.00
H2       0.02358    0.86750    0.31212   1.00
H2       0.06737    0.84292    0.30802   1.00
C6       0.05724    0.88150    0.25919   1.00
H2       -0.03274   0.86930    0.32905   1.00
C6       -0.07832   0.90771    0.30825   1.00
H2       -0.07760   0.84520    0.31774   1.00
C6       0.07832    0.91571    0.27839   1.00
H2       0.07760    0.86631    0.23892   1.00
H2       0.03274    0.89284    0.24117   1.00
H2       -0.05822   0.93150    0.29921   1.00
H2       -0.10380   0.90719    0.28820   1.00
H2       -0.08898   0.91411    0.33818   1.00
H2       0.05822    0.93179    0.29811   1.00
H2       0.10380    0.90524    0.29549   1.00
H2       0.08898    0.93622    0.25566   1.00
C4       0.52067    0.74980    0.24925   1.00
C4       0.47933    0.75020    0.25075   1.00
C3       0.54244    0.71489    0.25480   1.00
C3       0.45756    0.71719    0.26339   1.00
C4       0.54150    0.78500    0.24234   1.00
C4       0.45850    0.78414    0.23914   1.00
C2       0.60352    0.74940    0.25018   1.00
C2       0.39648    0.74939    0.25015   1.00
C3       0.58310    0.71496    0.25559   1.00
C3       0.41690    0.71686    0.26268   1.00
C3       0.58306    0.78396    0.24309   1.00
C3       0.41694    0.78287    0.23901   1.00
H1       0.52888    0.68671    0.25771   1.00
H1       0.47112    0.69133    0.27496   1.00
C5       0.52065    0.82011    0.23431   1.00
C5       0.47935    0.81857    0.22854   1.00
H1       0.59886    0.68796    0.26020   1.00
H1       0.40114    0.69117    0.27218   1.00
H1       0.60053    0.80954    0.23764   1.00
H1       0.39947    0.80775    0.23094   1.00
C6       0.54234    0.85912    0.23346   1.00
C6       0.45766    0.85277    0.20978   1.00
H2       0.52358    0.88282    0.24507   1.00
H2       0.56737    0.85948    0.25380   1.00
C6       0.55724    0.86848    0.19222   1.00
H2       0.47642    0.86750    0.18788   1.00
H2       0.43263    0.84292    0.19198   1.00
C6       0.44276    0.88150    0.24081   1.00
H2       0.53274    0.86930    0.17095   1.00
C6       0.57832    0.90771    0.19175   1.00
H2       0.57760    0.84520    0.18226   1.00
C6       0.42168    0.91571    0.22161   1.00
H2       0.42240    0.86631    0.26108   1.00
H2       0.46726    0.89284    0.25883   1.00
H2       0.55822    0.93150    0.20079   1.00
H2       0.60380    0.90719    0.21180   1.00
H2       0.58898    0.91411    0.16182   1.00
H2       0.44178    0.93179    0.20189   1.00
H2       0.39620    0.90524    0.20451   1.00
H2       0.41102    0.93622    0.24434   1.00
C4       0.25075    0.47933    0.24980   1.00
C4       0.24925    0.52067    0.25020   1.00
C3       0.24520    0.45756    0.21489   1.00
C3       0.23661    0.54244    0.21719   1.00
C4       0.25766    0.45850    0.28500   1.00
C4       0.26086    0.54150    0.28414   1.00
C2       0.24982    0.39648    0.24940   1.00
C2       0.24985    0.60352    0.24939   1.00
C3       0.24441    0.41690    0.21496   1.00
C3       0.23732    0.58310    0.21686   1.00
C3       0.25691    0.41694    0.28396   1.00
C3       0.26099    0.58306    0.28287   1.00
H1       0.24229    0.47112    0.18671   1.00
H1       0.22504    0.52888    0.19133   1.00
C5       0.26569    0.47935    0.32011   1.00
C5       0.27146    0.52065    0.31857   1.00
H1       0.23980    0.40114    0.18796   1.00
H1       0.22782    0.59886    0.19117   1.00
H1       0.26236    0.39947    0.30954   1.00
H1       0.26906    0.60053    0.30775   1.00
C6       0.26654    0.45766    0.35912   1.00
C6       0.29022    0.54234    0.35277   1.00
H2       0.25493    0.47642    0.38282   1.00
H2       0.24620    0.43263    0.35948   1.00
C6       0.30778    0.44276    0.36848   1.00
H2       0.31212    0.52358    0.36750   1.00
H2       0.30802    0.56737    0.34292   1.00
C6       0.25919    0.55724    0.38150   1.00
H2       0.32905    0.46726    0.36930   1.00
C6       0.30825    0.42168    0.40771   1.00
H2       0.31774    0.42240    0.34520   1.00
C6       0.27839    0.57832    0.41571   1.00
H2       0.23892    0.57760    0.36631   1.00
H2       0.24117    0.53274    0.39284   1.00
H2       0.29921    0.44178    0.43150   1.00
H2       0.28820    0.39620    0.40719   1.00
H2       0.33818    0.41102    0.41411   1.00
H2       0.29811    0.55822    0.43179   1.00
H2       0.29549    0.60380    0.40524   1.00
H2       0.25566    0.58898    0.43622   1.00
C4       0.24980    0.75075    -0.02067   1.00
C4       0.25020    0.74925    0.02067   1.00
C3       0.21489    0.74520    -0.04244   1.00
C3       0.21719    0.73661    0.04244   1.00
C4       0.28500    0.75766    -0.04150   1.00
C4       0.28414    0.76086    0.04150   1.00
C2       0.24940    0.74982    -0.10352   1.00
C2       0.24939    0.74985    0.10352   1.00
C3       0.21496    0.74441    -0.08310   1.00
C3       0.21686    0.73732    0.08310   1.00
C3       0.28396    0.75691    -0.08306   1.00
C3       0.28287    0.76099    0.08306   1.00
H1       0.18671    0.74229    -0.02888   1.00
H1       0.19133    0.72504    0.02888   1.00
C5       0.32011    0.76569    -0.02065   1.00
C5       0.31857    0.77146    0.02065   1.00
H1       0.18796    0.73980    -0.09886   1.00
H1       0.19117    0.72782    0.09886   1.00
H1       0.30954    0.76236    -0.10053   1.00
H1       0.30775    0.76906    0.10053   1.00
C6       0.35912    0.76654    -0.04234   1.00
C6       0.35277    0.79022    0.04234   1.00
H2       0.38282    0.75493    -0.02358   1.00
H2       0.35948    0.74620    -0.06737   1.00
C6       0.36848    0.80778    -0.05724   1.00
H2       0.36750    0.81212    0.02358   1.00
H2       0.34292    0.80802    0.06737   1.00
C6       0.38150    0.75919    0.05724   1.00
H2       0.36930    0.82905    -0.03274   1.00
C6       0.40771    0.80825    -0.07832   1.00
H2       0.34520    0.81774    -0.07760   1.00
C6       0.41571    0.77839    0.07832   1.00
H2       0.36631    0.73892    0.07760   1.00
H2       0.39284    0.74117    0.03274   1.00
H2       0.43150    0.79921    -0.05822   1.00
H2       0.40719    0.78820    -0.10380   1.00
H2       0.41411    0.83818    -0.08898   1.00
H2       0.43179    0.79811    0.05822   1.00
H2       0.40524    0.79549    0.10380   1.00
H2       0.43622    0.75566    0.08898   1.00
C4       0.74980    0.24925    0.52067   1.00
C4       0.75020    0.25075    0.47933   1.00
C3       0.71489    0.25480    0.54244   1.00
C3       0.71719    0.26339    0.45756   1.00
C4       0.78500    0.24234    0.54150   1.00
C4       0.78414    0.23914    0.45850   1.00
C2       0.74940    0.25018    0.60352   1.00
C2       0.74939    0.25015    0.39648   1.00
C3       0.71496    0.25559    0.58310   1.00
C3       0.71686    0.26268    0.41690   1.00
C3       0.78396    0.24309    0.58306   1.00
C3       0.78287    0.23901    0.41694   1.00
H1       0.68671    0.25771    0.52888   1.00
H1       0.69133    0.27496    0.47112   1.00
C5       0.82011    0.23431    0.52065   1.00
C5       0.81857    0.22854    0.47935   1.00
H1       0.68796    0.26020    0.59886   1.00
H1       0.69117    0.27218    0.40114   1.00
H1       0.80954    0.23764    0.60053   1.00
H1       0.80775    0.23094    0.39947   1.00
C6       0.85912    0.23346    0.54234   1.00
C6       0.85277    0.20978    0.45766   1.00
H2       0.88282    0.24507    0.52358   1.00
H2       0.85948    0.25380    0.56737   1.00
C6       0.86848    0.19222    0.55724   1.00
H2       0.86750    0.18788    0.47642   1.00
H2       0.84292    0.19198    0.43263   1.00
C6       0.88150    0.24081    0.44276   1.00
H2       0.86930    0.17095    0.53274   1.00
C6       0.90771    0.19175    0.57832   1.00
H2       0.84520    0.18226    0.57760   1.00
C6       0.91571    0.22161    0.42168   1.00
H2       0.86631    0.26108    0.42240   1.00
H2       0.89284    0.25883    0.46726   1.00
H2       0.93150    0.20079    0.55822   1.00
H2       0.90719    0.21180    0.60380   1.00
H2       0.91411    0.16182    0.58898   1.00
H2       0.93179    0.20189    0.44178   1.00
H2       0.90524    0.20451    0.39620   1.00
H2       0.93622    0.24434    0.41102   1.00
C4       0.74925    0.52067    0.24980   1.00
C4       0.75075    0.47933    0.25020   1.00
C3       0.75480    0.54244    0.21489   1.00
C3       0.76339    0.45756    0.21719   1.00
C4       0.74234    0.54150    0.28500   1.00
C4       0.73914    0.45850    0.28414   1.00
C2       0.75018    0.60352    0.24940   1.00
C2       0.75015    0.39648    0.24939   1.00
C3       0.75559    0.58310    0.21496   1.00
C3       0.76268    0.41690    0.21686   1.00
C3       0.74309    0.58306    0.28396   1.00
C3       0.73901    0.41694    0.28287   1.00
H1       0.75771    0.52888    0.18671   1.00
H1       0.77496    0.47112    0.19133   1.00
C5       0.73431    0.52065    0.32011   1.00
C5       0.72854    0.47935    0.31857   1.00
H1       0.76020    0.59886    0.18796   1.00
H1       0.77218    0.40114    0.19117   1.00
H1       0.73764    0.60053    0.30954   1.00
H1       0.73094    0.39947    0.30775   1.00
C6       0.73346    0.54234    0.35912   1.00
C6       0.70978    0.45766    0.35277   1.00
H2       0.74507    0.52358    0.38282   1.00
H2       0.75380    0.56737    0.35948   1.00
C6       0.69222    0.55724    0.36848   1.00
H2       0.68788    0.47642    0.36750   1.00
H2       0.69198    0.43263    0.34292   1.00
C6       0.74081    0.44276    0.38150   1.00
H2       0.67095    0.53274    0.36930   1.00
C6       0.69175    0.57832    0.40771   1.00
H2       0.68226    0.57760    0.34520   1.00
C6       0.72161    0.42168    0.41571   1.00
H2       0.76108    0.42240    0.36631   1.00
H2       0.75883    0.46726    0.39284   1.00
H2       0.70079    0.55822    0.43150   1.00
H2       0.71180    0.60380    0.40719   1.00
H2       0.66182    0.58898    0.41411   1.00
H2       0.70189    0.44178    0.43179   1.00
H2       0.70451    0.39620    0.40524   1.00
H2       0.74434    0.41102    0.43622   1.00
C4       0.47933    0.24980    0.25075   1.00
C4       0.52067    0.25020    0.24925   1.00
C3       0.45756    0.21489    0.24520   1.00
C3       0.54244    0.21719    0.23661   1.00
C4       0.45850    0.28500    0.25766   1.00
C4       0.54150    0.28414    0.26086   1.00
C2       0.39648    0.24940    0.24982   1.00
C2       0.60352    0.24939    0.24985   1.00
C3       0.41690    0.21496    0.24441   1.00
C3       0.58310    0.21686    0.23732   1.00
C3       0.41694    0.28396    0.25691   1.00
C3       0.58306    0.28287    0.26099   1.00
H1       0.47112    0.18671    0.24229   1.00
H1       0.52888    0.19133    0.22504   1.00
C5       0.47935    0.32011    0.26569   1.00
C5       0.52065    0.31857    0.27146   1.00
H1       0.40114    0.18796    0.23980   1.00
H1       0.59886    0.19117    0.22782   1.00
H1       0.39947    0.30954    0.26236   1.00
H1       0.60053    0.30775    0.26906   1.00
C6       0.45766    0.35912    0.26654   1.00
C6       0.54234    0.35277    0.29022   1.00
H2       0.47642    0.38282    0.25493   1.00
H2       0.43263    0.35948    0.24620   1.00
C6       0.44276    0.36848    0.30778   1.00
H2       0.52358    0.36750    0.31212   1.00
H2       0.56737    0.34292    0.30802   1.00
C6       0.55724    0.38150    0.25919   1.00
H2       0.46726    0.36930    0.32905   1.00
C6       0.42168    0.40771    0.30825   1.00
H2       0.42240    0.34520    0.31774   1.00
C6       0.57832    0.41571    0.27839   1.00
H2       0.57760    0.36631    0.23892   1.00
H2       0.53274    0.39284    0.24117   1.00
H2       0.44178    0.43150    0.29921   1.00
H2       0.39620    0.40719    0.28820   1.00
H2       0.41102    0.41411    0.33818   1.00
H2       0.55822    0.43179    0.29811   1.00
H2       0.60380    0.40524    0.29549   1.00
H2       0.58898    0.43622    0.25566   1.00
C4       1.02067    0.24980    0.24925   1.00
C4       0.97933    0.25020    0.25075   1.00
C3       1.04244    0.21489    0.25480   1.00
C3       0.95756    0.21719    0.26339   1.00
C4       1.04150    0.28500    0.24234   1.00
C4       0.95850    0.28414    0.23914   1.00
C2       1.10352    0.24940    0.25018   1.00
C2       0.89648    0.24939    0.25015   1.00
C3       1.08310    0.21496    0.25559   1.00
C3       0.91690    0.21686    0.26268   1.00
C3       1.08306    0.28396    0.24309   1.00
C3       0.91694    0.28287    0.23901   1.00
H1       1.02888    0.18671    0.25771   1.00
H1       0.97112    0.19133    0.27496   1.00
C5       1.02065    0.32011    0.23431   1.00
C5       0.97935    0.31857    0.22854   1.00
H1       1.09886    0.18796    0.26020   1.00
H1       0.90114    0.19117    0.27218   1.00
H1       1.10053    0.30954    0.23764   1.00
H1       0.89947    0.30775    0.23094   1.00
C6       1.04234    0.35912    0.23346   1.00
C6       0.95766    0.35277    0.20978   1.00
H2       1.02358    0.38282    0.24507   1.00
H2       1.06737    0.35948    0.25380   1.00
C6       1.05724    0.36848    0.19222   1.00
H2       0.97642    0.36750    0.18788   1.00
H2       0.93263    0.34292    0.19198   1.00
C6       0.94276    0.38150    0.24081   1.00
H2       1.03274    0.36930    0.17095   1.00
C6       1.07832    0.40771    0.19175   1.00
H2       1.07760    0.34520    0.18226   1.00
C6       0.92168    0.41571    0.22161   1.00
H2       0.92240    0.36631    0.26108   1.00
H2       0.96726    0.39284    0.25883   1.00
H2       1.05822    0.43150    0.20079   1.00
H2       1.10380    0.40719    0.21180   1.00
H2       1.08898    0.41411    0.16182   1.00
H2       0.94178    0.43179    0.20189   1.00
H2       0.89620    0.40524    0.20451   1.00
H2       0.91102    0.43622    0.24434   1.00
C4       0.75075    -0.02067   0.24980   1.00
C4       0.74925    0.02067    0.25020   1.00
C3       0.74520    -0.04244   0.21489   1.00
C3       0.73661    0.04244    0.21719   1.00
C4       0.75766    -0.04150   0.28500   1.00
C4       0.76086    0.04150    0.28414   1.00
C2       0.74982    -0.10352   0.24940   1.00
C2       0.74985    0.10352    0.24939   1.00
C3       0.74441    -0.08310   0.21496   1.00
C3       0.73732    0.08310    0.21686   1.00
C3       0.75691    -0.08306   0.28396   1.00
C3       0.76099    0.08306    0.28287   1.00
H1       0.74229    -0.02888   0.18671   1.00
H1       0.72504    0.02888    0.19133   1.00
C5       0.76569    -0.02065   0.32011   1.00
C5       0.77146    0.02065    0.31857   1.00
H1       0.73980    -0.09886   0.18796   1.00
H1       0.72782    0.09886    0.19117   1.00
H1       0.76236    -0.10053   0.30954   1.00
H1       0.76906    0.10053    0.30775   1.00
C6       0.76654    -0.04234   0.35912   1.00
C6       0.79022    0.04234    0.35277   1.00
H2       0.75493    -0.02358   0.38282   1.00
H2       0.74620    -0.06737   0.35948   1.00
C6       0.80778    -0.05724   0.36848   1.00
H2       0.81212    0.02358    0.36750   1.00
H2       0.80802    0.06737    0.34292   1.00
C6       0.75919    0.05724    0.38150   1.00
H2       0.82905    -0.03274   0.36930   1.00
C6       0.80825    -0.07832   0.40771   1.00
H2       0.81774    -0.07760   0.34520   1.00
C6       0.77839    0.07832    0.41571   1.00
H2       0.73892    0.07760    0.36631   1.00
H2       0.74117    0.03274    0.39284   1.00
H2       0.79921    -0.05822   0.43150   1.00
H2       0.78820    -0.10380   0.40719   1.00
H2       0.83818    -0.08898   0.41411   1.00
H2       0.79811    0.05822    0.43179   1.00
H2       0.79549    0.10380    0.40524   1.00
H2       0.75566    0.08898    0.43622   1.00
C4       0.74980    0.25075    -0.02067   1.00
C4       0.75020    0.24925    0.02067   1.00
C3       0.71489    0.24520    -0.04244   1.00
C3       0.71719    0.23661    0.04244   1.00
C4       0.78500    0.25766    -0.04150   1.00
C4       0.78414    0.26086    0.04150   1.00
C2       0.74940    0.24982    -0.10352   1.00
C2       0.74939    0.24985    0.10352   1.00
C3       0.71496    0.24441    -0.08310   1.00
C3       0.71686    0.23732    0.08310   1.00
C3       0.78396    0.25691    -0.08306   1.00
C3       0.78287    0.26099    0.08306   1.00
H1       0.68671    0.24229    -0.02888   1.00
H1       0.69133    0.22504    0.02888   1.00
C5       0.82011    0.26569    -0.02065   1.00
C5       0.81857    0.27146    0.02065   1.00
H1       0.68796    0.23980    -0.09886   1.00
H1       0.69117    0.22782    0.09886   1.00
H1       0.80954    0.26236    -0.10053   1.00
H1       0.80775    0.26906    0.10053   1.00
C6       0.85912    0.26654    -0.04234   1.00
C6       0.85277    0.29022    0.04234   1.00
H2       0.88282    0.25493    -0.02358   1.00
H2       0.85948    0.24620    -0.06737   1.00
C6       0.86848    0.30778    -0.05724   1.00
H2       0.86750    0.31212    0.02358   1.00
H2       0.84292    0.30802    0.06737   1.00
C6       0.88150    0.25919    0.05724   1.00
H2       0.86930    0.32905    -0.03274   1.00
C6       0.90771    0.30825    -0.07832   1.00
H2       0.84520    0.31774    -0.07760   1.00
C6       0.91571    0.27839    0.07832   1.00
H2       0.86631    0.23892    0.07760   1.00
H2       0.89284    0.24117    0.03274   1.00
H2       0.93150    0.29921    -0.05822   1.00
H2       0.90719    0.28820    -0.10380   1.00
H2       0.91411    0.33818    -0.08898   1.00
H2       0.93179    0.29811    0.05822   1.00
H2       0.90524    0.29549    0.10380   1.00
H2       0.93622    0.25566    0.08898   1.00
