data_IRMOF10_SG202_Ligand10_label_s.

_audit_creation_method             'generated by an auxiliary program of Tobunporous'

_symmetry_space_group_name_H-M     'P 1'
_symmetry_Int_Tables_number        1
_symmetry_cell_setting             triclinic

_cell_length_a                    34.2800
_cell_length_b                    34.2800
_cell_length_c                    34.2800
_cell_angle_alpha                 90.0000
_cell_angle_beta                  90.0000
_cell_angle_gamma                 90.0000

loop_
_atom_site_label
_atom_site_fract_x
_atom_site_fract_y
_atom_site_fract_z
_atom_site_occupancy
O1       0.75000    0.75000    0.75000   1.00
Zn1      0.71720    0.78280    0.78280   1.00
Zn1      0.78280    0.71720    0.78280   1.00
Zn1      0.78280    0.78280    0.71720   1.00
Zn1      0.71720    0.71720    0.71720   1.00
O2       0.72650    0.77350    0.83820   1.00
O2       0.72650    0.83820    0.77350   1.00
O2       0.66180    0.77350    0.77350   1.00
O2       0.77350    0.72650    0.83820   1.00
O2       0.83820    0.72650    0.77350   1.00
O2       0.77350    0.66180    0.77350   1.00
O2       0.77350    0.83820    0.72650   1.00
O2       0.83820    0.77350    0.72650   1.00
O2       0.77350    0.77350    0.66180   1.00
O2       0.66180    0.72650    0.72650   1.00
O2       0.72650    0.66180    0.72650   1.00
O2       0.72650    0.72650    0.66180   1.00
C1       0.75000    0.75000    0.85520   1.00
C1       0.75000    0.85520    0.75000   1.00
C1       0.64480    0.75000    0.75000   1.00
C1       0.85520    0.75000    0.75000   1.00
C1       0.75000    0.64480    0.75000   1.00
C1       0.75000    0.75000    0.64480   1.00
O1       0.25000    0.25000    0.75000   1.00
Zn1      0.21720    0.28280    0.78280   1.00
Zn1      0.28280    0.21720    0.78280   1.00
Zn1      0.28280    0.28280    0.71720   1.00
Zn1      0.21720    0.21720    0.71720   1.00
O2       0.22650    0.27350    0.83820   1.00
O2       0.22650    0.33820    0.77350   1.00
O2       0.16180    0.27350    0.77350   1.00
O2       0.27350    0.22650    0.83820   1.00
O2       0.33820    0.22650    0.77350   1.00
O2       0.27350    0.16180    0.77350   1.00
O2       0.27350    0.33820    0.72650   1.00
O2       0.33820    0.27350    0.72650   1.00
O2       0.27350    0.27350    0.66180   1.00
O2       0.16180    0.22650    0.72650   1.00
O2       0.22650    0.16180    0.72650   1.00
O2       0.22650    0.22650    0.66180   1.00
C1       0.25000    0.25000    0.85520   1.00
C1       0.25000    0.35520    0.75000   1.00
C1       0.14480    0.25000    0.75000   1.00
C1       0.35520    0.25000    0.75000   1.00
C1       0.25000    0.14480    0.75000   1.00
C1       0.25000    0.25000    0.64480   1.00
O1       0.25000    0.75000    0.25000   1.00
Zn1      0.21720    0.78280    0.28280   1.00
Zn1      0.28280    0.71720    0.28280   1.00
Zn1      0.28280    0.78280    0.21720   1.00
Zn1      0.21720    0.71720    0.21720   1.00
O2       0.22650    0.77350    0.33820   1.00
O2       0.22650    0.83820    0.27350   1.00
O2       0.16180    0.77350    0.27350   1.00
O2       0.27350    0.72650    0.33820   1.00
O2       0.33820    0.72650    0.27350   1.00
O2       0.27350    0.66180    0.27350   1.00
O2       0.27350    0.83820    0.22650   1.00
O2       0.33820    0.77350    0.22650   1.00
O2       0.27350    0.77350    0.16180   1.00
O2       0.16180    0.72650    0.22650   1.00
O2       0.22650    0.66180    0.22650   1.00
O2       0.22650    0.72650    0.16180   1.00
C1       0.25000    0.75000    0.35520   1.00
C1       0.25000    0.85520    0.25000   1.00
C1       0.14480    0.75000    0.25000   1.00
C1       0.35520    0.75000    0.25000   1.00
C1       0.25000    0.64480    0.25000   1.00
C1       0.25000    0.75000    0.14480   1.00
O1       0.75000    0.25000    0.25000   1.00
Zn1      0.71720    0.28280    0.28280   1.00
Zn1      0.78280    0.21720    0.28280   1.00
Zn1      0.78280    0.28280    0.21720   1.00
Zn1      0.71720    0.21720    0.21720   1.00
O2       0.72650    0.27350    0.33820   1.00
O2       0.72650    0.33820    0.27350   1.00
O2       0.66180    0.27350    0.27350   1.00
O2       0.77350    0.22650    0.33820   1.00
O2       0.83820    0.22650    0.27350   1.00
O2       0.77350    0.16180    0.27350   1.00
O2       0.77350    0.33820    0.22650   1.00
O2       0.83820    0.27350    0.22650   1.00
O2       0.77350    0.27350    0.16180   1.00
O2       0.66180    0.22650    0.22650   1.00
O2       0.72650    0.16180    0.22650   1.00
O2       0.72650    0.22650    0.16180   1.00
C1       0.75000    0.25000    0.35520   1.00
C1       0.75000    0.35520    0.25000   1.00
C1       0.64480    0.25000    0.25000   1.00
C1       0.85520    0.25000    0.25000   1.00
C1       0.75000    0.14480    0.25000   1.00
C1       0.75000    0.25000    0.14480   1.00
O1       0.25000    0.25000    0.25000   1.00
Zn1      0.28280    0.21720    0.21720   1.00
Zn1      0.21720    0.28280    0.21720   1.00
Zn1      0.21720    0.21720    0.28280   1.00
Zn1      0.28280    0.28280    0.28280   1.00
O2       0.27350    0.22650    0.16180   1.00
O2       0.27350    0.16180    0.22650   1.00
O2       0.33820    0.22650    0.22650   1.00
O2       0.22650    0.27350    0.16180   1.00
O2       0.16180    0.27350    0.22650   1.00
O2       0.22650    0.33820    0.22650   1.00
O2       0.22650    0.16180    0.27350   1.00
O2       0.16180    0.22650    0.27350   1.00
O2       0.22650    0.22650    0.33820   1.00
O2       0.33820    0.27350    0.27350   1.00
O2       0.27350    0.33820    0.27350   1.00
O2       0.27350    0.27350    0.33820   1.00
C1       0.25000    0.25000    0.14480   1.00
C1       0.25000    0.14480    0.25000   1.00
C1       0.35520    0.25000    0.25000   1.00
C1       0.14480    0.25000    0.25000   1.00
C1       0.25000    0.35520    0.25000   1.00
C1       0.25000    0.25000    0.35520   1.00
O1       0.75000    0.75000    0.25000   1.00
Zn1      0.78280    0.71720    0.21720   1.00
Zn1      0.71720    0.78280    0.21720   1.00
Zn1      0.71720    0.71720    0.28280   1.00
Zn1      0.78280    0.78280    0.28280   1.00
O2       0.77350    0.72650    0.16180   1.00
O2       0.77350    0.66180    0.22650   1.00
O2       0.83820    0.72650    0.22650   1.00
O2       0.72650    0.77350    0.16180   1.00
O2       0.66180    0.77350    0.22650   1.00
O2       0.72650    0.83820    0.22650   1.00
O2       0.72650    0.66180    0.27350   1.00
O2       0.66180    0.72650    0.27350   1.00
O2       0.72650    0.72650    0.33820   1.00
O2       0.83820    0.77350    0.27350   1.00
O2       0.77350    0.83820    0.27350   1.00
O2       0.77350    0.77350    0.33820   1.00
C1       0.75000    0.75000    0.14480   1.00
C1       0.75000    0.64480    0.25000   1.00
C1       0.85520    0.75000    0.25000   1.00
C1       0.64480    0.75000    0.25000   1.00
C1       0.75000    0.85520    0.25000   1.00
C1       0.75000    0.75000    0.35520   1.00
O1       0.75000    0.25000    0.75000   1.00
Zn1      0.78280    0.21720    0.71720   1.00
Zn1      0.71720    0.28280    0.71720   1.00
Zn1      0.71720    0.21720    0.78280   1.00
Zn1      0.78280    0.28280    0.78280   1.00
O2       0.77350    0.22650    0.66180   1.00
O2       0.77350    0.16180    0.72650   1.00
O2       0.83820    0.22650    0.72650   1.00
O2       0.72650    0.27350    0.66180   1.00
O2       0.66180    0.27350    0.72650   1.00
O2       0.72650    0.33820    0.72650   1.00
O2       0.72650    0.16180    0.77350   1.00
O2       0.66180    0.22650    0.77350   1.00
O2       0.72650    0.22650    0.83820   1.00
O2       0.83820    0.27350    0.77350   1.00
O2       0.77350    0.33820    0.77350   1.00
O2       0.77350    0.27350    0.83820   1.00
C1       0.75000    0.25000    0.64480   1.00
C1       0.75000    0.14480    0.75000   1.00
C1       0.85520    0.25000    0.75000   1.00
C1       0.64480    0.25000    0.75000   1.00
C1       0.75000    0.35520    0.75000   1.00
C1       0.75000    0.25000    0.85520   1.00
O1       0.25000    0.75000    0.75000   1.00
Zn1      0.28280    0.71720    0.71720   1.00
Zn1      0.21720    0.78280    0.71720   1.00
Zn1      0.21720    0.71720    0.78280   1.00
Zn1      0.28280    0.78280    0.78280   1.00
O2       0.27350    0.72650    0.66180   1.00
O2       0.27350    0.66180    0.72650   1.00
O2       0.33820    0.72650    0.72650   1.00
O2       0.22650    0.77350    0.66180   1.00
O2       0.16180    0.77350    0.72650   1.00
O2       0.22650    0.83820    0.72650   1.00
O2       0.22650    0.66180    0.77350   1.00
O2       0.16180    0.72650    0.77350   1.00
O2       0.22650    0.72650    0.83820   1.00
O2       0.33820    0.77350    0.77350   1.00
O2       0.27350    0.83820    0.77350   1.00
O2       0.27350    0.77350    0.83820   1.00
C1       0.25000    0.75000    0.64480   1.00
C1       0.25000    0.64480    0.75000   1.00
C1       0.35520    0.75000    0.75000   1.00
C1       0.14480    0.75000    0.75000   1.00
C1       0.25000    0.85520    0.75000   1.00
C1       0.25000    0.75000    0.85520   1.00
C4       0.74976    0.74970    0.97915   1.00
C4       0.75024    0.75030    1.02085   1.00
C3       0.71629    0.76058    0.95751   1.00
C3       0.73203    0.78034    1.04252   1.00
C3       0.78318    0.73896    0.95738   1.00
C3       0.76833    0.72020    1.04259   1.00
C2       0.74988    0.75010    0.89482   1.00
C2       0.74988    0.75010    1.10518   1.00
C3a      0.71620    0.76082    0.91599   1.00
C3       0.73191    0.78018    1.08382   1.00
C3       0.78317    0.73918    0.91611   1.00
C3a      0.76827    0.71993    1.08403   1.00
H1       0.68995    0.76866    0.97294   1.00
H1       0.71806    0.80437    1.02750   1.00
C5       0.67995    0.77240    0.89410   1.00
H1       0.71768    0.80375    1.09933   1.00
H1       0.80944    0.73106    0.90056   1.00
C5       0.78810    0.68704    1.10535   1.00
H1       0.78172    0.69592    1.02747   1.00
H1       0.80987    0.73106    0.97230   1.00
H2       0.81976    0.68779    1.09837   1.00
H2       0.78530    0.69059    1.13747   1.00
N1       0.77128    0.64950    1.09395   1.00
C6       0.77229    0.63347    1.05810   1.00
C6       0.75228    0.62449    1.11757   1.00
C6       0.75356    0.59785    1.05873   1.00
C6       0.74083    0.59215    1.09656   1.00
H3       0.78583    0.64673    1.03281   1.00
H3       0.74690    0.62945    1.14831   1.00
H3       0.74966    0.57820    1.03436   1.00
H3       0.72500    0.56720    1.10758   1.00
H2       0.68608    0.77123    0.86228   1.00
H2       0.65562    0.75181    0.90001   1.00
N1       0.66786    0.81169    0.90523   1.00
C6       0.66483    0.84497    0.88078   1.00
C6       0.65637    0.82469    0.94285   1.00
C6       0.65223    0.87629    0.90277   1.00
C6       0.64704    0.86383    0.94091   1.00
H3       0.67151    0.84547    0.84992   1.00
H3       0.65555    0.80663    0.96876   1.00
H3       0.64733    0.90555    0.89205   1.00
H3       0.63745    0.88172    0.96505   1.00
C4       0.74970    0.97915    0.74976   1.00
C4       0.75030    1.02085    0.75024   1.00
C3       0.76058    0.95751    0.71629   1.00
C3       0.78034    1.04252    0.73203   1.00
C3       0.73896    0.95738    0.78318   1.00
C3       0.72020    1.04259    0.76833   1.00
C2       0.75010    0.89482    0.74988   1.00
C2       0.75010    1.10518    0.74988   1.00
C3a      0.76082    0.91599    0.71620   1.00
C3       0.78018    1.08382    0.73191   1.00
C3       0.73918    0.91611    0.78317   1.00
C3a      0.71993    1.08403    0.76827   1.00
H1       0.76866    0.97294    0.68995   1.00
H1       0.80437    1.02750    0.71806   1.00
C5       0.77240    0.89410    0.67995   1.00
H1       0.80375    1.09933    0.71768   1.00
H1       0.73106    0.90056    0.80944   1.00
C5       0.68704    1.10535    0.78810   1.00
H1       0.69592    1.02747    0.78172   1.00
H1       0.73106    0.97230    0.80987   1.00
H2       0.68779    1.09837    0.81976   1.00
H2       0.69059    1.13747    0.78530   1.00
N1       0.64950    1.09395    0.77128   1.00
C6       0.63347    1.05810    0.77229   1.00
C6       0.62449    1.11757    0.75228   1.00
C6       0.59785    1.05873    0.75356   1.00
C6       0.59215    1.09656    0.74083   1.00
H3       0.64673    1.03281    0.78583   1.00
H3       0.62945    1.14831    0.74690   1.00
H3       0.57820    1.03436    0.74966   1.00
H3       0.56720    1.10758    0.72500   1.00
H2       0.77123    0.86228    0.68608   1.00
H2       0.75181    0.90001    0.65562   1.00
N1       0.81169    0.90523    0.66786   1.00
C6       0.84497    0.88078    0.66483   1.00
C6       0.82469    0.94285    0.65637   1.00
C6       0.87629    0.90277    0.65223   1.00
C6       0.86383    0.94091    0.64704   1.00
H3       0.84547    0.84992    0.67151   1.00
H3       0.80663    0.96876    0.65555   1.00
H3       0.90555    0.89205    0.64733   1.00
H3       0.88172    0.96505    0.63745   1.00
C4       0.52085    0.74976    0.75030   1.00
C4       0.47915    0.75024    0.74970   1.00
C3       0.54249    0.71629    0.73942   1.00
C3       0.45748    0.73203    0.71966   1.00
C3       0.54262    0.78318    0.76104   1.00
C3       0.45741    0.76833    0.77980   1.00
C2       0.60518    0.74988    0.74990   1.00
C2       0.39482    0.74988    0.74990   1.00
C3a      0.58401    0.71620    0.73918   1.00
C3       0.41618    0.73191    0.71982   1.00
C3       0.58389    0.78317    0.76082   1.00
C3a      0.41597    0.76827    0.78007   1.00
H1       0.52706    0.68995    0.73134   1.00
H1       0.47250    0.71806    0.69563   1.00
C5       0.60590    0.67995    0.72760   1.00
H1       0.40067    0.71768    0.69625   1.00
H1       0.59944    0.80944    0.76894   1.00
C5       0.39465    0.78810    0.81296   1.00
H1       0.47253    0.78172    0.80408   1.00
H1       0.52770    0.80987    0.76894   1.00
H2       0.40163    0.81976    0.81221   1.00
H2       0.36253    0.78530    0.80941   1.00
N1       0.40605    0.77128    0.85050   1.00
C6       0.44190    0.77229    0.86653   1.00
C6       0.38243    0.75228    0.87551   1.00
C6       0.44127    0.75356    0.90215   1.00
C6       0.40344    0.74083    0.90785   1.00
H3       0.46719    0.78583    0.85327   1.00
H3       0.35169    0.74690    0.87055   1.00
H3       0.46564    0.74966    0.92180   1.00
H3       0.39242    0.72500    0.93280   1.00
H2       0.63772    0.68608    0.72877   1.00
H2       0.59999    0.65562    0.74819   1.00
N1       0.59477    0.66786    0.68831   1.00
C6       0.61922    0.66483    0.65503   1.00
C6       0.55715    0.65637    0.67531   1.00
C6       0.59723    0.65223    0.62371   1.00
C6       0.55909    0.64704    0.63617   1.00
H3       0.65008    0.67151    0.65453   1.00
H3       0.53124    0.65555    0.69337   1.00
H3       0.60795    0.64733    0.59445   1.00
H3       0.53495    0.63745    0.61828   1.00
C4       0.97915    0.74976    0.74970   1.00
C4       1.02085    0.75024    0.75030   1.00
C3       0.95751    0.71629    0.76058   1.00
C3       1.04252    0.73203    0.78034   1.00
C3       0.95738    0.78318    0.73896   1.00
C3       1.04259    0.76833    0.72020   1.00
C2       0.89482    0.74988    0.75010   1.00
C2       1.10518    0.74988    0.75010   1.00
C3a      0.91599    0.71620    0.76082   1.00
C3       1.08382    0.73191    0.78018   1.00
C3       0.91611    0.78317    0.73918   1.00
C3a      1.08403    0.76827    0.71993   1.00
H1       0.97294    0.68995    0.76866   1.00
H1       1.02750    0.71806    0.80437   1.00
C5       0.89410    0.67995    0.77240   1.00
H1       1.09933    0.71768    0.80375   1.00
H1       0.90056    0.80944    0.73106   1.00
C5       1.10535    0.78810    0.68704   1.00
H1       1.02747    0.78172    0.69592   1.00
H1       0.97230    0.80987    0.73106   1.00
H2       1.09837    0.81976    0.68779   1.00
H2       1.13747    0.78530    0.69059   1.00
N1       1.09395    0.77128    0.64950   1.00
C6       1.05810    0.77229    0.63347   1.00
C6       1.11757    0.75228    0.62449   1.00
C6       1.05873    0.75356    0.59785   1.00
C6       1.09656    0.74083    0.59215   1.00
H3       1.03281    0.78583    0.64673   1.00
H3       1.14831    0.74690    0.62945   1.00
H3       1.03436    0.74966    0.57820   1.00
H3       1.10758    0.72500    0.56720   1.00
H2       0.86228    0.68608    0.77123   1.00
H2       0.90001    0.65562    0.75181   1.00
N1       0.90523    0.66786    0.81169   1.00
C6       0.88078    0.66483    0.84497   1.00
C6       0.94285    0.65637    0.82469   1.00
C6       0.90277    0.65223    0.87629   1.00
C6       0.94091    0.64704    0.86383   1.00
H3       0.84992    0.67151    0.84547   1.00
H3       0.96876    0.65555    0.80663   1.00
H3       0.89205    0.64733    0.90555   1.00
H3       0.96505    0.63745    0.88172   1.00
C4       0.75030    0.52085    0.74976   1.00
C4       0.74970    0.47915    0.75024   1.00
C3       0.73942    0.54249    0.71629   1.00
C3       0.71966    0.45748    0.73203   1.00
C3       0.76104    0.54262    0.78318   1.00
C3       0.77980    0.45741    0.76833   1.00
C2       0.74990    0.60518    0.74988   1.00
C2       0.74990    0.39482    0.74988   1.00
C3a      0.73918    0.58401    0.71620   1.00
C3       0.71982    0.41618    0.73191   1.00
C3       0.76082    0.58389    0.78317   1.00
C3a      0.78007    0.41597    0.76827   1.00
H1       0.73134    0.52706    0.68995   1.00
H1       0.69563    0.47250    0.71806   1.00
C5       0.72760    0.60590    0.67995   1.00
H1       0.69625    0.40067    0.71768   1.00
H1       0.76894    0.59944    0.80944   1.00
C5       0.81296    0.39465    0.78810   1.00
H1       0.80408    0.47253    0.78172   1.00
H1       0.76894    0.52770    0.80987   1.00
H2       0.81221    0.40163    0.81976   1.00
H2       0.80941    0.36253    0.78530   1.00
N1       0.85050    0.40605    0.77128   1.00
C6       0.86653    0.44190    0.77229   1.00
C6       0.87551    0.38243    0.75228   1.00
C6       0.90215    0.44127    0.75356   1.00
C6       0.90785    0.40344    0.74083   1.00
H3       0.85327    0.46719    0.78583   1.00
H3       0.87055    0.35169    0.74690   1.00
H3       0.92180    0.46564    0.74966   1.00
H3       0.93280    0.39242    0.72500   1.00
H2       0.72877    0.63772    0.68608   1.00
H2       0.74819    0.59999    0.65562   1.00
N1       0.68831    0.59477    0.66786   1.00
C6       0.65503    0.61922    0.66483   1.00
C6       0.67531    0.55715    0.65637   1.00
C6       0.62371    0.59723    0.65223   1.00
C6       0.63617    0.55909    0.64704   1.00
H3       0.65453    0.65008    0.67151   1.00
H3       0.69337    0.53124    0.65555   1.00
H3       0.59445    0.60795    0.64733   1.00
H3       0.61828    0.53495    0.63745   1.00
C4       0.74976    0.75030    0.52085   1.00
C4       0.75024    0.74970    0.47915   1.00
C3       0.71629    0.73942    0.54249   1.00
C3       0.73203    0.71966    0.45748   1.00
C3       0.78318    0.76104    0.54262   1.00
C3       0.76833    0.77980    0.45741   1.00
C2       0.74988    0.74990    0.60518   1.00
C2       0.74988    0.74990    0.39482   1.00
C3a      0.71620    0.73918    0.58401   1.00
C3       0.73191    0.71982    0.41618   1.00
C3       0.78317    0.76082    0.58389   1.00
C3a      0.76827    0.78007    0.41597   1.00
H1       0.68995    0.73134    0.52706   1.00
H1       0.71806    0.69563    0.47250   1.00
C5       0.67995    0.72760    0.60590   1.00
H1       0.71768    0.69625    0.40067   1.00
H1       0.80944    0.76894    0.59944   1.00
C5       0.78810    0.81296    0.39465   1.00
H1       0.78172    0.80408    0.47253   1.00
H1       0.80987    0.76894    0.52770   1.00
H2       0.81976    0.81221    0.40163   1.00
H2       0.78530    0.80941    0.36253   1.00
N1       0.77128    0.85050    0.40605   1.00
C6       0.77229    0.86653    0.44190   1.00
C6       0.75228    0.87551    0.38243   1.00
C6       0.75356    0.90215    0.44127   1.00
C6       0.74083    0.90785    0.40344   1.00
H3       0.78583    0.85327    0.46719   1.00
H3       0.74690    0.87055    0.35169   1.00
H3       0.74966    0.92180    0.46564   1.00
H3       0.72500    0.93280    0.39242   1.00
H2       0.68608    0.72877    0.63772   1.00
H2       0.65562    0.74819    0.59999   1.00
N1       0.66786    0.68831    0.59477   1.00
C6       0.66483    0.65503    0.61922   1.00
C6       0.65637    0.67531    0.55715   1.00
C6       0.65223    0.62371    0.59723   1.00
C6       0.64704    0.63617    0.55909   1.00
H3       0.67151    0.65453    0.65008   1.00
H3       0.65555    0.69337    0.53124   1.00
H3       0.64733    0.59445    0.60795   1.00
H3       0.63745    0.61828    0.53495   1.00
C4       0.24976    0.24970    0.97915   1.00
C4       0.25024    0.25030    1.02085   1.00
C3       0.21629    0.26058    0.95751   1.00
C3       0.23203    0.28034    1.04252   1.00
C3       0.28318    0.23896    0.95738   1.00
C3       0.26833    0.22020    1.04259   1.00
C2       0.24988    0.25010    0.89482   1.00
C2       0.24988    0.25010    1.10518   1.00
C3a      0.21620    0.26082    0.91599   1.00
C3       0.23191    0.28018    1.08382   1.00
C3       0.28317    0.23918    0.91611   1.00
C3a      0.26827    0.21993    1.08403   1.00
H1       0.18995    0.26866    0.97294   1.00
H1       0.21806    0.30437    1.02750   1.00
C5       0.17995    0.27240    0.89410   1.00
H1       0.21768    0.30375    1.09933   1.00
H1       0.30944    0.23106    0.90056   1.00
C5       0.28810    0.18704    1.10535   1.00
H1       0.28172    0.19592    1.02747   1.00
H1       0.30987    0.23106    0.97230   1.00
H2       0.31976    0.18779    1.09837   1.00
H2       0.28530    0.19059    1.13747   1.00
N1       0.27128    0.14950    1.09395   1.00
C6       0.27229    0.13347    1.05810   1.00
C6       0.25228    0.12449    1.11757   1.00
C6       0.25356    0.09785    1.05873   1.00
C6       0.24083    0.09215    1.09656   1.00
H3       0.28583    0.14673    1.03281   1.00
H3       0.24690    0.12945    1.14831   1.00
H3       0.24966    0.07820    1.03436   1.00
H3       0.22500    0.06720    1.10758   1.00
H2       0.18608    0.27123    0.86228   1.00
H2       0.15562    0.25181    0.90001   1.00
N1       0.16786    0.31169    0.90523   1.00
C6       0.16483    0.34497    0.88078   1.00
C6       0.15637    0.32469    0.94285   1.00
C6       0.15223    0.37629    0.90277   1.00
C6       0.14704    0.36383    0.94091   1.00
H3       0.17151    0.34547    0.84992   1.00
H3       0.15555    0.30663    0.96876   1.00
H3       0.14733    0.40555    0.89205   1.00
H3       0.13745    0.38172    0.96505   1.00
C4       0.24970    0.47915    0.74976   1.00
C4       0.25030    0.52085    0.75024   1.00
C3       0.26058    0.45751    0.71629   1.00
C3       0.28034    0.54252    0.73203   1.00
C3       0.23896    0.45738    0.78318   1.00
C3       0.22020    0.54259    0.76833   1.00
C2       0.25010    0.39482    0.74988   1.00
C2       0.25010    0.60518    0.74988   1.00
C3a      0.26082    0.41599    0.71620   1.00
C3       0.28018    0.58382    0.73191   1.00
C3       0.23918    0.41611    0.78317   1.00
C3a      0.21993    0.58403    0.76827   1.00
H1       0.26866    0.47294    0.68995   1.00
H1       0.30437    0.52750    0.71806   1.00
C5       0.27240    0.39410    0.67995   1.00
H1       0.30375    0.59933    0.71768   1.00
H1       0.23106    0.40056    0.80944   1.00
C5       0.18704    0.60535    0.78810   1.00
H1       0.19592    0.52747    0.78172   1.00
H1       0.23106    0.47230    0.80987   1.00
H2       0.18779    0.59837    0.81976   1.00
H2       0.19059    0.63747    0.78530   1.00
N1       0.14950    0.59395    0.77128   1.00
C6       0.13347    0.55810    0.77229   1.00
C6       0.12449    0.61757    0.75228   1.00
C6       0.09785    0.55873    0.75356   1.00
C6       0.09215    0.59656    0.74083   1.00
H3       0.14673    0.53281    0.78583   1.00
H3       0.12945    0.64831    0.74690   1.00
H3       0.07820    0.53436    0.74966   1.00
H3       0.06720    0.60758    0.72500   1.00
H2       0.27123    0.36228    0.68608   1.00
H2       0.25181    0.40001    0.65562   1.00
N1       0.31169    0.40523    0.66786   1.00
C6       0.34497    0.38078    0.66483   1.00
C6       0.32469    0.44285    0.65637   1.00
C6       0.37629    0.40277    0.65223   1.00
C6       0.36383    0.44091    0.64704   1.00
H3       0.34547    0.34992    0.67151   1.00
H3       0.30663    0.46876    0.65555   1.00
H3       0.40555    0.39205    0.64733   1.00
H3       0.38172    0.46505    0.63745   1.00
C4       0.02085    0.24976    0.75030   1.00
C4       -0.02085   0.25024    0.74970   1.00
C3       0.04249    0.21629    0.73942   1.00
C3       -0.04252   0.23203    0.71966   1.00
C3       0.04262    0.28318    0.76104   1.00
C3       -0.04259   0.26833    0.77980   1.00
C2       0.10518    0.24988    0.74990   1.00
C2       -0.10518   0.24988    0.74990   1.00
C3a      0.08401    0.21620    0.73918   1.00
C3       -0.08382   0.23191    0.71982   1.00
C3       0.08389    0.28317    0.76082   1.00
C3a      -0.08403   0.26827    0.78007   1.00
H1       0.02706    0.18995    0.73134   1.00
H1       -0.02750   0.21806    0.69563   1.00
C5       0.10590    0.17995    0.72760   1.00
H1       -0.09933   0.21768    0.69625   1.00
H1       0.09944    0.30944    0.76894   1.00
C5       -0.10535   0.28810    0.81296   1.00
H1       -0.02747   0.28172    0.80408   1.00
H1       0.02770    0.30987    0.76894   1.00
H2       -0.09837   0.31976    0.81221   1.00
H2       -0.13747   0.28530    0.80941   1.00
N1       -0.09395   0.27128    0.85050   1.00
C6       -0.05810   0.27229    0.86653   1.00
C6       -0.11757   0.25228    0.87551   1.00
C6       -0.05873   0.25356    0.90215   1.00
C6       -0.09656   0.24083    0.90785   1.00
H3       -0.03281   0.28583    0.85327   1.00
H3       -0.14831   0.24690    0.87055   1.00
H3       -0.03436   0.24966    0.92180   1.00
H3       -0.10758   0.22500    0.93280   1.00
H2       0.13772    0.18608    0.72877   1.00
H2       0.09999    0.15562    0.74819   1.00
N1       0.09477    0.16786    0.68831   1.00
C6       0.11922    0.16483    0.65503   1.00
C6       0.05715    0.15637    0.67531   1.00
C6       0.09723    0.15223    0.62371   1.00
C6       0.05909    0.14704    0.63617   1.00
H3       0.15008    0.17151    0.65453   1.00
H3       0.03124    0.15555    0.69337   1.00
H3       0.10795    0.14733    0.59445   1.00
H3       0.03495    0.13745    0.61828   1.00
C4       0.47915    0.24976    0.74970   1.00
C4       0.52085    0.25024    0.75030   1.00
C3       0.45751    0.21629    0.76058   1.00
C3       0.54252    0.23203    0.78034   1.00
C3       0.45738    0.28318    0.73896   1.00
C3       0.54259    0.26833    0.72020   1.00
C2       0.39482    0.24988    0.75010   1.00
C2       0.60518    0.24988    0.75010   1.00
C3a      0.41599    0.21620    0.76082   1.00
C3       0.58382    0.23191    0.78018   1.00
C3       0.41611    0.28317    0.73918   1.00
C3a      0.58403    0.26827    0.71993   1.00
H1       0.47294    0.18995    0.76866   1.00
H1       0.52750    0.21806    0.80437   1.00
C5       0.39410    0.17995    0.77240   1.00
H1       0.59933    0.21768    0.80375   1.00
H1       0.40056    0.30944    0.73106   1.00
C5       0.60535    0.28810    0.68704   1.00
H1       0.52747    0.28172    0.69592   1.00
H1       0.47230    0.30987    0.73106   1.00
H2       0.59837    0.31976    0.68779   1.00
H2       0.63747    0.28530    0.69059   1.00
N1       0.59395    0.27128    0.64950   1.00
C6       0.55810    0.27229    0.63347   1.00
C6       0.61757    0.25228    0.62449   1.00
C6       0.55873    0.25356    0.59785   1.00
C6       0.59656    0.24083    0.59215   1.00
H3       0.53281    0.28583    0.64673   1.00
H3       0.64831    0.24690    0.62945   1.00
H3       0.53436    0.24966    0.57820   1.00
H3       0.60758    0.22500    0.56720   1.00
H2       0.36228    0.18608    0.77123   1.00
H2       0.40001    0.15562    0.75181   1.00
N1       0.40523    0.16786    0.81169   1.00
C6       0.38078    0.16483    0.84497   1.00
C6       0.44285    0.15637    0.82469   1.00
C6       0.40277    0.15223    0.87629   1.00
C6       0.44091    0.14704    0.86383   1.00
H3       0.34992    0.17151    0.84547   1.00
H3       0.46876    0.15555    0.80663   1.00
H3       0.39205    0.14733    0.90555   1.00
H3       0.46505    0.13745    0.88172   1.00
C4       0.25030    0.02085    0.74976   1.00
C4       0.24970    -0.02085   0.75024   1.00
C3       0.23942    0.04249    0.71629   1.00
C3       0.21966    -0.04252   0.73203   1.00
C3       0.26104    0.04262    0.78318   1.00
C3       0.27980    -0.04259   0.76833   1.00
C2       0.24990    0.10518    0.74988   1.00
C2       0.24990    -0.10518   0.74988   1.00
C3a      0.23918    0.08401    0.71620   1.00
C3       0.21982    -0.08382   0.73191   1.00
C3       0.26082    0.08389    0.78317   1.00
C3a      0.28007    -0.08403   0.76827   1.00
H1       0.23134    0.02706    0.68995   1.00
H1       0.19563    -0.02750   0.71806   1.00
C5       0.22760    0.10590    0.67995   1.00
H1       0.19625    -0.09933   0.71768   1.00
H1       0.26894    0.09944    0.80944   1.00
C5       0.31296    -0.10535   0.78810   1.00
H1       0.30408    -0.02747   0.78172   1.00
H1       0.26894    0.02770    0.80987   1.00
H2       0.31221    -0.09837   0.81976   1.00
H2       0.30941    -0.13747   0.78530   1.00
N1       0.35050    -0.09395   0.77128   1.00
C6       0.36653    -0.05810   0.77229   1.00
C6       0.37551    -0.11757   0.75228   1.00
C6       0.40215    -0.05873   0.75356   1.00
C6       0.40785    -0.09656   0.74083   1.00
H3       0.35327    -0.03281   0.78583   1.00
H3       0.37055    -0.14831   0.74690   1.00
H3       0.42180    -0.03436   0.74966   1.00
H3       0.43280    -0.10758   0.72500   1.00
H2       0.22877    0.13772    0.68608   1.00
H2       0.24819    0.09999    0.65562   1.00
N1       0.18831    0.09477    0.66786   1.00
C6       0.15503    0.11922    0.66483   1.00
C6       0.17531    0.05715    0.65637   1.00
C6       0.12371    0.09723    0.65223   1.00
C6       0.13617    0.05909    0.64704   1.00
H3       0.15453    0.15008    0.67151   1.00
H3       0.19337    0.03124    0.65555   1.00
H3       0.09445    0.10795    0.64733   1.00
H3       0.11828    0.03495    0.63745   1.00
C4       0.24976    0.25030    0.52085   1.00
C4       0.25024    0.24970    0.47915   1.00
C3       0.21629    0.23942    0.54249   1.00
C3       0.23203    0.21966    0.45748   1.00
C3       0.28318    0.26104    0.54262   1.00
C3       0.26833    0.27980    0.45741   1.00
C2       0.24988    0.24990    0.60518   1.00
C2       0.24988    0.24990    0.39482   1.00
C3a      0.21620    0.23918    0.58401   1.00
C3       0.23191    0.21982    0.41618   1.00
C3       0.28317    0.26082    0.58389   1.00
C3a      0.26827    0.28007    0.41597   1.00
H1       0.18995    0.23134    0.52706   1.00
H1       0.21806    0.19563    0.47250   1.00
C5       0.17995    0.22760    0.60590   1.00
H1       0.21768    0.19625    0.40067   1.00
H1       0.30944    0.26894    0.59944   1.00
C5       0.28810    0.31296    0.39465   1.00
H1       0.28172    0.30408    0.47253   1.00
H1       0.30987    0.26894    0.52770   1.00
H2       0.31976    0.31221    0.40163   1.00
H2       0.28530    0.30941    0.36253   1.00
N1       0.27128    0.35050    0.40605   1.00
C6       0.27229    0.36653    0.44190   1.00
C6       0.25228    0.37551    0.38243   1.00
C6       0.25356    0.40215    0.44127   1.00
C6       0.24083    0.40785    0.40344   1.00
H3       0.28583    0.35327    0.46719   1.00
H3       0.24690    0.37055    0.35169   1.00
H3       0.24966    0.42180    0.46564   1.00
H3       0.22500    0.43280    0.39242   1.00
H2       0.18608    0.22877    0.63772   1.00
H2       0.15562    0.24819    0.59999   1.00
N1       0.16786    0.18831    0.59477   1.00
C6       0.16483    0.15503    0.61922   1.00
C6       0.15637    0.17531    0.55715   1.00
C6       0.15223    0.12371    0.59723   1.00
C6       0.14704    0.13617    0.55909   1.00
H3       0.17151    0.15453    0.65008   1.00
H3       0.15555    0.19337    0.53124   1.00
H3       0.14733    0.09445    0.60795   1.00
H3       0.13745    0.11828    0.53495   1.00
C4       0.24976    0.74970    0.47915   1.00
C4       0.25024    0.75030    0.52085   1.00
C3       0.21629    0.76058    0.45751   1.00
C3       0.23203    0.78034    0.54252   1.00
C3       0.28318    0.73896    0.45738   1.00
C3       0.26833    0.72020    0.54259   1.00
C2       0.24988    0.75010    0.39482   1.00
C2       0.24988    0.75010    0.60518   1.00
C3a      0.21620    0.76082    0.41599   1.00
C3       0.23191    0.78018    0.58382   1.00
C3       0.28317    0.73918    0.41611   1.00
C3a      0.26827    0.71993    0.58403   1.00
H1       0.18995    0.76866    0.47294   1.00
H1       0.21806    0.80437    0.52750   1.00
C5       0.17995    0.77240    0.39410   1.00
H1       0.21768    0.80375    0.59933   1.00
H1       0.30944    0.73106    0.40056   1.00
C5       0.28810    0.68704    0.60535   1.00
H1       0.28172    0.69592    0.52747   1.00
H1       0.30987    0.73106    0.47230   1.00
H2       0.31976    0.68779    0.59837   1.00
H2       0.28530    0.69059    0.63747   1.00
N1       0.27128    0.64950    0.59395   1.00
C6       0.27229    0.63347    0.55810   1.00
C6       0.25228    0.62449    0.61757   1.00
C6       0.25356    0.59785    0.55873   1.00
C6       0.24083    0.59215    0.59656   1.00
H3       0.28583    0.64673    0.53281   1.00
H3       0.24690    0.62945    0.64831   1.00
H3       0.24966    0.57820    0.53436   1.00
H3       0.22500    0.56720    0.60758   1.00
H2       0.18608    0.77123    0.36228   1.00
H2       0.15562    0.75181    0.40001   1.00
N1       0.16786    0.81169    0.40523   1.00
C6       0.16483    0.84497    0.38078   1.00
C6       0.15637    0.82469    0.44285   1.00
C6       0.15223    0.87629    0.40277   1.00
C6       0.14704    0.86383    0.44091   1.00
H3       0.17151    0.84547    0.34992   1.00
H3       0.15555    0.80663    0.46876   1.00
H3       0.14733    0.90555    0.39205   1.00
H3       0.13745    0.88172    0.46505   1.00
C4       0.24970    0.97915    0.24976   1.00
C4       0.25030    1.02085    0.25024   1.00
C3       0.26058    0.95751    0.21629   1.00
C3       0.28034    1.04252    0.23203   1.00
C3       0.23896    0.95738    0.28318   1.00
C3       0.22020    1.04259    0.26833   1.00
C2       0.25010    0.89482    0.24988   1.00
C2       0.25010    1.10518    0.24988   1.00
C3a      0.26082    0.91599    0.21620   1.00
C3       0.28018    1.08382    0.23191   1.00
C3       0.23918    0.91611    0.28317   1.00
C3a      0.21993    1.08403    0.26827   1.00
H1       0.26866    0.97294    0.18995   1.00
H1       0.30437    1.02750    0.21806   1.00
C5       0.27240    0.89410    0.17995   1.00
H1       0.30375    1.09933    0.21768   1.00
H1       0.23106    0.90056    0.30944   1.00
C5       0.18704    1.10535    0.28810   1.00
H1       0.19592    1.02747    0.28172   1.00
H1       0.23106    0.97230    0.30987   1.00
H2       0.18779    1.09837    0.31976   1.00
H2       0.19059    1.13747    0.28530   1.00
N1       0.14950    1.09395    0.27128   1.00
C6       0.13347    1.05810    0.27229   1.00
C6       0.12449    1.11757    0.25228   1.00
C6       0.09785    1.05873    0.25356   1.00
C6       0.09215    1.09656    0.24083   1.00
H3       0.14673    1.03281    0.28583   1.00
H3       0.12945    1.14831    0.24690   1.00
H3       0.07820    1.03436    0.24966   1.00
H3       0.06720    1.10758    0.22500   1.00
H2       0.27123    0.86228    0.18608   1.00
H2       0.25181    0.90001    0.15562   1.00
N1       0.31169    0.90523    0.16786   1.00
C6       0.34497    0.88078    0.16483   1.00
C6       0.32469    0.94285    0.15637   1.00
C6       0.37629    0.90277    0.15223   1.00
C6       0.36383    0.94091    0.14704   1.00
H3       0.34547    0.84992    0.17151   1.00
H3       0.30663    0.96876    0.15555   1.00
H3       0.40555    0.89205    0.14733   1.00
H3       0.38172    0.96505    0.13745   1.00
C4       0.02085    0.74976    0.25030   1.00
C4       -0.02085   0.75024    0.24970   1.00
C3       0.04249    0.71629    0.23942   1.00
C3       -0.04252   0.73203    0.21966   1.00
C3       0.04262    0.78318    0.26104   1.00
C3       -0.04259   0.76833    0.27980   1.00
C2       0.10518    0.74988    0.24990   1.00
C2       -0.10518   0.74988    0.24990   1.00
C3a      0.08401    0.71620    0.23918   1.00
C3       -0.08382   0.73191    0.21982   1.00
C3       0.08389    0.78317    0.26082   1.00
C3a      -0.08403   0.76827    0.28007   1.00
H1       0.02706    0.68995    0.23134   1.00
H1       -0.02750   0.71806    0.19563   1.00
C5       0.10590    0.67995    0.22760   1.00
H1       -0.09933   0.71768    0.19625   1.00
H1       0.09944    0.80944    0.26894   1.00
C5       -0.10535   0.78810    0.31296   1.00
H1       -0.02747   0.78172    0.30408   1.00
H1       0.02770    0.80987    0.26894   1.00
H2       -0.09837   0.81976    0.31221   1.00
H2       -0.13747   0.78530    0.30941   1.00
N1       -0.09395   0.77128    0.35050   1.00
C6       -0.05810   0.77229    0.36653   1.00
C6       -0.11757   0.75228    0.37551   1.00
C6       -0.05873   0.75356    0.40215   1.00
C6       -0.09656   0.74083    0.40785   1.00
H3       -0.03281   0.78583    0.35327   1.00
H3       -0.14831   0.74690    0.37055   1.00
H3       -0.03436   0.74966    0.42180   1.00
H3       -0.10758   0.72500    0.43280   1.00
H2       0.13772    0.68608    0.22877   1.00
H2       0.09999    0.65562    0.24819   1.00
N1       0.09477    0.66786    0.18831   1.00
C6       0.11922    0.66483    0.15503   1.00
C6       0.05715    0.65637    0.17531   1.00
C6       0.09723    0.65223    0.12371   1.00
C6       0.05909    0.64704    0.13617   1.00
H3       0.15008    0.67151    0.15453   1.00
H3       0.03124    0.65555    0.19337   1.00
H3       0.10795    0.64733    0.09445   1.00
H3       0.03495    0.63745    0.11828   1.00
C4       0.47915    0.74976    0.24970   1.00
C4       0.52085    0.75024    0.25030   1.00
C3       0.45751    0.71629    0.26058   1.00
C3       0.54252    0.73203    0.28034   1.00
C3       0.45738    0.78318    0.23896   1.00
C3       0.54259    0.76833    0.22020   1.00
C2       0.39482    0.74988    0.25010   1.00
C2       0.60518    0.74988    0.25010   1.00
C3a      0.41599    0.71620    0.26082   1.00
C3       0.58382    0.73191    0.28018   1.00
C3       0.41611    0.78317    0.23918   1.00
C3a      0.58403    0.76827    0.21993   1.00
H1       0.47294    0.68995    0.26866   1.00
H1       0.52750    0.71806    0.30437   1.00
C5       0.39410    0.67995    0.27240   1.00
H1       0.59933    0.71768    0.30375   1.00
H1       0.40056    0.80944    0.23106   1.00
C5       0.60535    0.78810    0.18704   1.00
H1       0.52747    0.78172    0.19592   1.00
H1       0.47230    0.80987    0.23106   1.00
H2       0.59837    0.81976    0.18779   1.00
H2       0.63747    0.78530    0.19059   1.00
N1       0.59395    0.77128    0.14950   1.00
C6       0.55810    0.77229    0.13347   1.00
C6       0.61757    0.75228    0.12449   1.00
C6       0.55873    0.75356    0.09785   1.00
C6       0.59656    0.74083    0.09215   1.00
H3       0.53281    0.78583    0.14673   1.00
H3       0.64831    0.74690    0.12945   1.00
H3       0.53436    0.74966    0.07820   1.00
H3       0.60758    0.72500    0.06720   1.00
H2       0.36228    0.68608    0.27123   1.00
H2       0.40001    0.65562    0.25181   1.00
N1       0.40523    0.66786    0.31169   1.00
C6       0.38078    0.66483    0.34497   1.00
C6       0.44285    0.65637    0.32469   1.00
C6       0.40277    0.65223    0.37629   1.00
C6       0.44091    0.64704    0.36383   1.00
H3       0.34992    0.67151    0.34547   1.00
H3       0.46876    0.65555    0.30663   1.00
H3       0.39205    0.64733    0.40555   1.00
H3       0.46505    0.63745    0.38172   1.00
C4       0.25030    0.52085    0.24976   1.00
C4       0.24970    0.47915    0.25024   1.00
C3       0.23942    0.54249    0.21629   1.00
C3       0.21966    0.45748    0.23203   1.00
C3       0.26104    0.54262    0.28318   1.00
C3       0.27980    0.45741    0.26833   1.00
C2       0.24990    0.60518    0.24988   1.00
C2       0.24990    0.39482    0.24988   1.00
C3a      0.23918    0.58401    0.21620   1.00
C3       0.21982    0.41618    0.23191   1.00
C3       0.26082    0.58389    0.28317   1.00
C3a      0.28007    0.41597    0.26827   1.00
H1       0.23134    0.52706    0.18995   1.00
H1       0.19563    0.47250    0.21806   1.00
C5       0.22760    0.60590    0.17995   1.00
H1       0.19625    0.40067    0.21768   1.00
H1       0.26894    0.59944    0.30944   1.00
C5       0.31296    0.39465    0.28810   1.00
H1       0.30408    0.47253    0.28172   1.00
H1       0.26894    0.52770    0.30987   1.00
H2       0.31221    0.40163    0.31976   1.00
H2       0.30941    0.36253    0.28530   1.00
N1       0.35050    0.40605    0.27128   1.00
C6       0.36653    0.44190    0.27229   1.00
C6       0.37551    0.38243    0.25228   1.00
C6       0.40215    0.44127    0.25356   1.00
C6       0.40785    0.40344    0.24083   1.00
H3       0.35327    0.46719    0.28583   1.00
H3       0.37055    0.35169    0.24690   1.00
H3       0.42180    0.46564    0.24966   1.00
H3       0.43280    0.39242    0.22500   1.00
H2       0.22877    0.63772    0.18608   1.00
H2       0.24819    0.59999    0.15562   1.00
N1       0.18831    0.59477    0.16786   1.00
C6       0.15503    0.61922    0.16483   1.00
C6       0.17531    0.55715    0.15637   1.00
C6       0.12371    0.59723    0.15223   1.00
C6       0.13617    0.55909    0.14704   1.00
H3       0.15453    0.65008    0.17151   1.00
H3       0.19337    0.53124    0.15555   1.00
H3       0.09445    0.60795    0.14733   1.00
H3       0.11828    0.53495    0.13745   1.00
C4       0.24976    0.75030    0.02085   1.00
C4       0.25024    0.74970    -0.02085   1.00
C3       0.21629    0.73942    0.04249   1.00
C3       0.23203    0.71966    -0.04252   1.00
C3       0.28318    0.76104    0.04262   1.00
C3       0.26833    0.77980    -0.04259   1.00
C2       0.24988    0.74990    0.10518   1.00
C2       0.24988    0.74990    -0.10518   1.00
C3a      0.21620    0.73918    0.08401   1.00
C3       0.23191    0.71982    -0.08382   1.00
C3       0.28317    0.76082    0.08389   1.00
C3a      0.26827    0.78007    -0.08403   1.00
H1       0.18995    0.73134    0.02706   1.00
H1       0.21806    0.69563    -0.02750   1.00
C5       0.17995    0.72760    0.10590   1.00
H1       0.21768    0.69625    -0.09933   1.00
H1       0.30944    0.76894    0.09944   1.00
C5       0.28810    0.81296    -0.10535   1.00
H1       0.28172    0.80408    -0.02747   1.00
H1       0.30987    0.76894    0.02770   1.00
H2       0.31976    0.81221    -0.09837   1.00
H2       0.28530    0.80941    -0.13747   1.00
N1       0.27128    0.85050    -0.09395   1.00
C6       0.27229    0.86653    -0.05810   1.00
C6       0.25228    0.87551    -0.11757   1.00
C6       0.25356    0.90215    -0.05873   1.00
C6       0.24083    0.90785    -0.09656   1.00
H3       0.28583    0.85327    -0.03281   1.00
H3       0.24690    0.87055    -0.14831   1.00
H3       0.24966    0.92180    -0.03436   1.00
H3       0.22500    0.93280    -0.10758   1.00
H2       0.18608    0.72877    0.13772   1.00
H2       0.15562    0.74819    0.09999   1.00
N1       0.16786    0.68831    0.09477   1.00
C6       0.16483    0.65503    0.11922   1.00
C6       0.15637    0.67531    0.05715   1.00
C6       0.15223    0.62371    0.09723   1.00
C6       0.14704    0.63617    0.05909   1.00
H3       0.17151    0.65453    0.15008   1.00
H3       0.15555    0.69337    0.03124   1.00
H3       0.14733    0.59445    0.10795   1.00
H3       0.13745    0.61828    0.03495   1.00
C4       0.74976    0.24970    0.47915   1.00
C4       0.75024    0.25030    0.52085   1.00
C3       0.71629    0.26058    0.45751   1.00
C3       0.73203    0.28034    0.54252   1.00
C3       0.78318    0.23896    0.45738   1.00
C3       0.76833    0.22020    0.54259   1.00
C2       0.74988    0.25010    0.39482   1.00
C2       0.74988    0.25010    0.60518   1.00
C3a      0.71620    0.26082    0.41599   1.00
C3       0.73191    0.28018    0.58382   1.00
C3       0.78317    0.23918    0.41611   1.00
C3a      0.76827    0.21993    0.58403   1.00
H1       0.68995    0.26866    0.47294   1.00
H1       0.71806    0.30437    0.52750   1.00
C5       0.67995    0.27240    0.39410   1.00
H1       0.71768    0.30375    0.59933   1.00
H1       0.80944    0.23106    0.40056   1.00
C5       0.78810    0.18704    0.60535   1.00
H1       0.78172    0.19592    0.52747   1.00
H1       0.80987    0.23106    0.47230   1.00
H2       0.81976    0.18779    0.59837   1.00
H2       0.78530    0.19059    0.63747   1.00
N1       0.77128    0.14950    0.59395   1.00
C6       0.77229    0.13347    0.55810   1.00
C6       0.75228    0.12449    0.61757   1.00
C6       0.75356    0.09785    0.55873   1.00
C6       0.74083    0.09215    0.59656   1.00
H3       0.78583    0.14673    0.53281   1.00
H3       0.74690    0.12945    0.64831   1.00
H3       0.74966    0.07820    0.53436   1.00
H3       0.72500    0.06720    0.60758   1.00
H2       0.68608    0.27123    0.36228   1.00
H2       0.65562    0.25181    0.40001   1.00
N1       0.66786    0.31169    0.40523   1.00
C6       0.66483    0.34497    0.38078   1.00
C6       0.65637    0.32469    0.44285   1.00
C6       0.65223    0.37629    0.40277   1.00
C6       0.64704    0.36383    0.44091   1.00
H3       0.67151    0.34547    0.34992   1.00
H3       0.65555    0.30663    0.46876   1.00
H3       0.64733    0.40555    0.39205   1.00
H3       0.63745    0.38172    0.46505   1.00
C4       0.74970    0.47915    0.24976   1.00
C4       0.75030    0.52085    0.25024   1.00
C3       0.76058    0.45751    0.21629   1.00
C3       0.78034    0.54252    0.23203   1.00
C3       0.73896    0.45738    0.28318   1.00
C3       0.72020    0.54259    0.26833   1.00
C2       0.75010    0.39482    0.24988   1.00
C2       0.75010    0.60518    0.24988   1.00
C3a      0.76082    0.41599    0.21620   1.00
C3       0.78018    0.58382    0.23191   1.00
C3       0.73918    0.41611    0.28317   1.00
C3a      0.71993    0.58403    0.26827   1.00
H1       0.76866    0.47294    0.18995   1.00
H1       0.80437    0.52750    0.21806   1.00
C5       0.77240    0.39410    0.17995   1.00
H1       0.80375    0.59933    0.21768   1.00
H1       0.73106    0.40056    0.30944   1.00
C5       0.68704    0.60535    0.28810   1.00
H1       0.69592    0.52747    0.28172   1.00
H1       0.73106    0.47230    0.30987   1.00
H2       0.68779    0.59837    0.31976   1.00
H2       0.69059    0.63747    0.28530   1.00
N1       0.64950    0.59395    0.27128   1.00
C6       0.63347    0.55810    0.27229   1.00
C6       0.62449    0.61757    0.25228   1.00
C6       0.59785    0.55873    0.25356   1.00
C6       0.59215    0.59656    0.24083   1.00
H3       0.64673    0.53281    0.28583   1.00
H3       0.62945    0.64831    0.24690   1.00
H3       0.57820    0.53436    0.24966   1.00
H3       0.56720    0.60758    0.22500   1.00
H2       0.77123    0.36228    0.18608   1.00
H2       0.75181    0.40001    0.15562   1.00
N1       0.81169    0.40523    0.16786   1.00
C6       0.84497    0.38078    0.16483   1.00
C6       0.82469    0.44285    0.15637   1.00
C6       0.87629    0.40277    0.15223   1.00
C6       0.86383    0.44091    0.14704   1.00
H3       0.84547    0.34992    0.17151   1.00
H3       0.80663    0.46876    0.15555   1.00
H3       0.90555    0.39205    0.14733   1.00
H3       0.88172    0.46505    0.13745   1.00
C4       0.52085    0.24976    0.25030   1.00
C4       0.47915    0.25024    0.24970   1.00
C3       0.54249    0.21629    0.23942   1.00
C3       0.45748    0.23203    0.21966   1.00
C3       0.54262    0.28318    0.26104   1.00
C3       0.45741    0.26833    0.27980   1.00
C2       0.60518    0.24988    0.24990   1.00
C2       0.39482    0.24988    0.24990   1.00
C3a      0.58401    0.21620    0.23918   1.00
C3       0.41618    0.23191    0.21982   1.00
C3       0.58389    0.28317    0.26082   1.00
C3a      0.41597    0.26827    0.28007   1.00
H1       0.52706    0.18995    0.23134   1.00
H1       0.47250    0.21806    0.19563   1.00
C5       0.60590    0.17995    0.22760   1.00
H1       0.40067    0.21768    0.19625   1.00
H1       0.59944    0.30944    0.26894   1.00
C5       0.39465    0.28810    0.31296   1.00
H1       0.47253    0.28172    0.30408   1.00
H1       0.52770    0.30987    0.26894   1.00
H2       0.40163    0.31976    0.31221   1.00
H2       0.36253    0.28530    0.30941   1.00
N1       0.40605    0.27128    0.35050   1.00
C6       0.44190    0.27229    0.36653   1.00
C6       0.38243    0.25228    0.37551   1.00
C6       0.44127    0.25356    0.40215   1.00
C6       0.40344    0.24083    0.40785   1.00
H3       0.46719    0.28583    0.35327   1.00
H3       0.35169    0.24690    0.37055   1.00
H3       0.46564    0.24966    0.42180   1.00
H3       0.39242    0.22500    0.43280   1.00
H2       0.63772    0.18608    0.22877   1.00
H2       0.59999    0.15562    0.24819   1.00
N1       0.59477    0.16786    0.18831   1.00
C6       0.61922    0.16483    0.15503   1.00
C6       0.55715    0.15637    0.17531   1.00
C6       0.59723    0.15223    0.12371   1.00
C6       0.55909    0.14704    0.13617   1.00
H3       0.65008    0.17151    0.15453   1.00
H3       0.53124    0.15555    0.19337   1.00
H3       0.60795    0.14733    0.09445   1.00
H3       0.53495    0.13745    0.11828   1.00
C4       0.97915    0.24976    0.24970   1.00
C4       1.02085    0.25024    0.25030   1.00
C3       0.95751    0.21629    0.26058   1.00
C3       1.04252    0.23203    0.28034   1.00
C3       0.95738    0.28318    0.23896   1.00
C3       1.04259    0.26833    0.22020   1.00
C2       0.89482    0.24988    0.25010   1.00
C2       1.10518    0.24988    0.25010   1.00
C3a      0.91599    0.21620    0.26082   1.00
C3       1.08382    0.23191    0.28018   1.00
C3       0.91611    0.28317    0.23918   1.00
C3a      1.08403    0.26827    0.21993   1.00
H1       0.97294    0.18995    0.26866   1.00
H1       1.02750    0.21806    0.30437   1.00
C5       0.89410    0.17995    0.27240   1.00
H1       1.09933    0.21768    0.30375   1.00
H1       0.90056    0.30944    0.23106   1.00
C5       1.10535    0.28810    0.18704   1.00
H1       1.02747    0.28172    0.19592   1.00
H1       0.97230    0.30987    0.23106   1.00
H2       1.09837    0.31976    0.18779   1.00
H2       1.13747    0.28530    0.19059   1.00
N1       1.09395    0.27128    0.14950   1.00
C6       1.05810    0.27229    0.13347   1.00
C6       1.11757    0.25228    0.12449   1.00
C6       1.05873    0.25356    0.09785   1.00
C6       1.09656    0.24083    0.09215   1.00
H3       1.03281    0.28583    0.14673   1.00
H3       1.14831    0.24690    0.12945   1.00
H3       1.03436    0.24966    0.07820   1.00
H3       1.10758    0.22500    0.06720   1.00
H2       0.86228    0.18608    0.27123   1.00
H2       0.90001    0.15562    0.25181   1.00
N1       0.90523    0.16786    0.31169   1.00
C6       0.88078    0.16483    0.34497   1.00
C6       0.94285    0.15637    0.32469   1.00
C6       0.90277    0.15223    0.37629   1.00
C6       0.94091    0.14704    0.36383   1.00
H3       0.84992    0.17151    0.34547   1.00
H3       0.96876    0.15555    0.30663   1.00
H3       0.89205    0.14733    0.40555   1.00
H3       0.96505    0.13745    0.38172   1.00
C4       0.75030    0.02085    0.24976   1.00
C4       0.74970    -0.02085   0.25024   1.00
C3       0.73942    0.04249    0.21629   1.00
C3       0.71966    -0.04252   0.23203   1.00
C3       0.76104    0.04262    0.28318   1.00
C3       0.77980    -0.04259   0.26833   1.00
C2       0.74990    0.10518    0.24988   1.00
C2       0.74990    -0.10518   0.24988   1.00
C3a      0.73918    0.08401    0.21620   1.00
C3       0.71982    -0.08382   0.23191   1.00
C3       0.76082    0.08389    0.28317   1.00
C3a      0.78007    -0.08403   0.26827   1.00
H1       0.73134    0.02706    0.18995   1.00
H1       0.69563    -0.02750   0.21806   1.00
C5       0.72760    0.10590    0.17995   1.00
H1       0.69625    -0.09933   0.21768   1.00
H1       0.76894    0.09944    0.30944   1.00
C5       0.81296    -0.10535   0.28810   1.00
H1       0.80408    -0.02747   0.28172   1.00
H1       0.76894    0.02770    0.30987   1.00
H2       0.81221    -0.09837   0.31976   1.00
H2       0.80941    -0.13747   0.28530   1.00
N1       0.85050    -0.09395   0.27128   1.00
C6       0.86653    -0.05810   0.27229   1.00
C6       0.87551    -0.11757   0.25228   1.00
C6       0.90215    -0.05873   0.25356   1.00
C6       0.90785    -0.09656   0.24083   1.00
H3       0.85327    -0.03281   0.28583   1.00
H3       0.87055    -0.14831   0.24690   1.00
H3       0.92180    -0.03436   0.24966   1.00
H3       0.93280    -0.10758   0.22500   1.00
H2       0.72877    0.13772    0.18608   1.00
H2       0.74819    0.09999    0.15562   1.00
N1       0.68831    0.09477    0.16786   1.00
C6       0.65503    0.11922    0.16483   1.00
C6       0.67531    0.05715    0.15637   1.00
C6       0.62371    0.09723    0.15223   1.00
C6       0.63617    0.05909    0.14704   1.00
H3       0.65453    0.15008    0.17151   1.00
H3       0.69337    0.03124    0.15555   1.00
H3       0.59445    0.10795    0.14733   1.00
H3       0.61828    0.03495    0.13745   1.00
C4       0.74976    0.25030    0.02085   1.00
C4       0.75024    0.24970    -0.02085   1.00
C3       0.71629    0.23942    0.04249   1.00
C3       0.73203    0.21966    -0.04252   1.00
C3       0.78318    0.26104    0.04262   1.00
C3       0.76833    0.27980    -0.04259   1.00
C2       0.74988    0.24990    0.10518   1.00
C2       0.74988    0.24990    -0.10518   1.00
C3a      0.71620    0.23918    0.08401   1.00
C3       0.73191    0.21982    -0.08382   1.00
C3       0.78317    0.26082    0.08389   1.00
C3a      0.76827    0.28007    -0.08403   1.00
H1       0.68995    0.23134    0.02706   1.00
H1       0.71806    0.19563    -0.02750   1.00
C5       0.67995    0.22760    0.10590   1.00
H1       0.71768    0.19625    -0.09933   1.00
H1       0.80944    0.26894    0.09944   1.00
C5       0.78810    0.31296    -0.10535   1.00
H1       0.78172    0.30408    -0.02747   1.00
H1       0.80987    0.26894    0.02770   1.00
H2       0.81976    0.31221    -0.09837   1.00
H2       0.78530    0.30941    -0.13747   1.00
N1       0.77128    0.35050    -0.09395   1.00
C6       0.77229    0.36653    -0.05810   1.00
C6       0.75228    0.37551    -0.11757   1.00
C6       0.75356    0.40215    -0.05873   1.00
C6       0.74083    0.40785    -0.09656   1.00
H3       0.78583    0.35327    -0.03281   1.00
H3       0.74690    0.37055    -0.14831   1.00
H3       0.74966    0.42180    -0.03436   1.00
H3       0.72500    0.43280    -0.10758   1.00
H2       0.68608    0.22877    0.13772   1.00
H2       0.65562    0.24819    0.09999   1.00
N1       0.66786    0.18831    0.09477   1.00
C6       0.66483    0.15503    0.11922   1.00
C6       0.65637    0.17531    0.05715   1.00
C6       0.65223    0.12371    0.09723   1.00
C6       0.64704    0.13617    0.05909   1.00
H3       0.67151    0.15453    0.15008   1.00
H3       0.65555    0.19337    0.03124   1.00
H3       0.64733    0.09445    0.10795   1.00
H3       0.63745    0.11828    0.03495   1.00
