data_IRMOF10_SG202_Ligand11_label_d.

_audit_creation_method             'generated by an auxiliary program of Tobunporous'

_symmetry_space_group_name_H-M     'P 1'
_symmetry_Int_Tables_number        1
_symmetry_cell_setting             triclinic

_cell_length_a                    34.2800
_cell_length_b                    34.2800
_cell_length_c                    34.2800
_cell_angle_alpha                 90.0000
_cell_angle_beta                  90.0000
_cell_angle_gamma                 90.0000

loop_
_atom_site_label
_atom_site_fract_x
_atom_site_fract_y
_atom_site_fract_z
_atom_site_occupancy
O1       0.75000    0.75000    0.75000   1.00
Zn1      0.71720    0.78280    0.78280   1.00
Zn1      0.78280    0.71720    0.78280   1.00
Zn1      0.78280    0.78280    0.71720   1.00
Zn1      0.71720    0.71720    0.71720   1.00
O2       0.72650    0.77350    0.83820   1.00
O2       0.72650    0.83820    0.77350   1.00
O2       0.66180    0.77350    0.77350   1.00
O2       0.77350    0.72650    0.83820   1.00
O2       0.83820    0.72650    0.77350   1.00
O2       0.77350    0.66180    0.77350   1.00
O2       0.77350    0.83820    0.72650   1.00
O2       0.83820    0.77350    0.72650   1.00
O2       0.77350    0.77350    0.66180   1.00
O2       0.66180    0.72650    0.72650   1.00
O2       0.72650    0.66180    0.72650   1.00
O2       0.72650    0.72650    0.66180   1.00
C1       0.75000    0.75000    0.85520   1.00
C1       0.75000    0.85520    0.75000   1.00
C1       0.64480    0.75000    0.75000   1.00
C1       0.85520    0.75000    0.75000   1.00
C1       0.75000    0.64480    0.75000   1.00
C1       0.75000    0.75000    0.64480   1.00
O1       0.25000    0.25000    0.75000   1.00
Zn1      0.21720    0.28280    0.78280   1.00
Zn1      0.28280    0.21720    0.78280   1.00
Zn1      0.28280    0.28280    0.71720   1.00
Zn1      0.21720    0.21720    0.71720   1.00
O2       0.22650    0.27350    0.83820   1.00
O2       0.22650    0.33820    0.77350   1.00
O2       0.16180    0.27350    0.77350   1.00
O2       0.27350    0.22650    0.83820   1.00
O2       0.33820    0.22650    0.77350   1.00
O2       0.27350    0.16180    0.77350   1.00
O2       0.27350    0.33820    0.72650   1.00
O2       0.33820    0.27350    0.72650   1.00
O2       0.27350    0.27350    0.66180   1.00
O2       0.16180    0.22650    0.72650   1.00
O2       0.22650    0.16180    0.72650   1.00
O2       0.22650    0.22650    0.66180   1.00
C1       0.25000    0.25000    0.85520   1.00
C1       0.25000    0.35520    0.75000   1.00
C1       0.14480    0.25000    0.75000   1.00
C1       0.35520    0.25000    0.75000   1.00
C1       0.25000    0.14480    0.75000   1.00
C1       0.25000    0.25000    0.64480   1.00
O1       0.25000    0.75000    0.25000   1.00
Zn1      0.21720    0.78280    0.28280   1.00
Zn1      0.28280    0.71720    0.28280   1.00
Zn1      0.28280    0.78280    0.21720   1.00
Zn1      0.21720    0.71720    0.21720   1.00
O2       0.22650    0.77350    0.33820   1.00
O2       0.22650    0.83820    0.27350   1.00
O2       0.16180    0.77350    0.27350   1.00
O2       0.27350    0.72650    0.33820   1.00
O2       0.33820    0.72650    0.27350   1.00
O2       0.27350    0.66180    0.27350   1.00
O2       0.27350    0.83820    0.22650   1.00
O2       0.33820    0.77350    0.22650   1.00
O2       0.27350    0.77350    0.16180   1.00
O2       0.16180    0.72650    0.22650   1.00
O2       0.22650    0.66180    0.22650   1.00
O2       0.22650    0.72650    0.16180   1.00
C1       0.25000    0.75000    0.35520   1.00
C1       0.25000    0.85520    0.25000   1.00
C1       0.14480    0.75000    0.25000   1.00
C1       0.35520    0.75000    0.25000   1.00
C1       0.25000    0.64480    0.25000   1.00
C1       0.25000    0.75000    0.14480   1.00
O1       0.75000    0.25000    0.25000   1.00
Zn1      0.71720    0.28280    0.28280   1.00
Zn1      0.78280    0.21720    0.28280   1.00
Zn1      0.78280    0.28280    0.21720   1.00
Zn1      0.71720    0.21720    0.21720   1.00
O2       0.72650    0.27350    0.33820   1.00
O2       0.72650    0.33820    0.27350   1.00
O2       0.66180    0.27350    0.27350   1.00
O2       0.77350    0.22650    0.33820   1.00
O2       0.83820    0.22650    0.27350   1.00
O2       0.77350    0.16180    0.27350   1.00
O2       0.77350    0.33820    0.22650   1.00
O2       0.83820    0.27350    0.22650   1.00
O2       0.77350    0.27350    0.16180   1.00
O2       0.66180    0.22650    0.22650   1.00
O2       0.72650    0.16180    0.22650   1.00
O2       0.72650    0.22650    0.16180   1.00
C1       0.75000    0.25000    0.35520   1.00
C1       0.75000    0.35520    0.25000   1.00
C1       0.64480    0.25000    0.25000   1.00
C1       0.85520    0.25000    0.25000   1.00
C1       0.75000    0.14480    0.25000   1.00
C1       0.75000    0.25000    0.14480   1.00
O1       0.25000    0.25000    0.25000   1.00
Zn1      0.28280    0.21720    0.21720   1.00
Zn1      0.21720    0.28280    0.21720   1.00
Zn1      0.21720    0.21720    0.28280   1.00
Zn1      0.28280    0.28280    0.28280   1.00
O2       0.27350    0.22650    0.16180   1.00
O2       0.27350    0.16180    0.22650   1.00
O2       0.33820    0.22650    0.22650   1.00
O2       0.22650    0.27350    0.16180   1.00
O2       0.16180    0.27350    0.22650   1.00
O2       0.22650    0.33820    0.22650   1.00
O2       0.22650    0.16180    0.27350   1.00
O2       0.16180    0.22650    0.27350   1.00
O2       0.22650    0.22650    0.33820   1.00
O2       0.33820    0.27350    0.27350   1.00
O2       0.27350    0.33820    0.27350   1.00
O2       0.27350    0.27350    0.33820   1.00
C1       0.25000    0.25000    0.14480   1.00
C1       0.25000    0.14480    0.25000   1.00
C1       0.35520    0.25000    0.25000   1.00
C1       0.14480    0.25000    0.25000   1.00
C1       0.25000    0.35520    0.25000   1.00
C1       0.25000    0.25000    0.35520   1.00
O1       0.75000    0.75000    0.25000   1.00
Zn1      0.78280    0.71720    0.21720   1.00
Zn1      0.71720    0.78280    0.21720   1.00
Zn1      0.71720    0.71720    0.28280   1.00
Zn1      0.78280    0.78280    0.28280   1.00
O2       0.77350    0.72650    0.16180   1.00
O2       0.77350    0.66180    0.22650   1.00
O2       0.83820    0.72650    0.22650   1.00
O2       0.72650    0.77350    0.16180   1.00
O2       0.66180    0.77350    0.22650   1.00
O2       0.72650    0.83820    0.22650   1.00
O2       0.72650    0.66180    0.27350   1.00
O2       0.66180    0.72650    0.27350   1.00
O2       0.72650    0.72650    0.33820   1.00
O2       0.83820    0.77350    0.27350   1.00
O2       0.77350    0.83820    0.27350   1.00
O2       0.77350    0.77350    0.33820   1.00
C1       0.75000    0.75000    0.14480   1.00
C1       0.75000    0.64480    0.25000   1.00
C1       0.85520    0.75000    0.25000   1.00
C1       0.64480    0.75000    0.25000   1.00
C1       0.75000    0.85520    0.25000   1.00
C1       0.75000    0.75000    0.35520   1.00
O1       0.75000    0.25000    0.75000   1.00
Zn1      0.78280    0.21720    0.71720   1.00
Zn1      0.71720    0.28280    0.71720   1.00
Zn1      0.71720    0.21720    0.78280   1.00
Zn1      0.78280    0.28280    0.78280   1.00
O2       0.77350    0.22650    0.66180   1.00
O2       0.77350    0.16180    0.72650   1.00
O2       0.83820    0.22650    0.72650   1.00
O2       0.72650    0.27350    0.66180   1.00
O2       0.66180    0.27350    0.72650   1.00
O2       0.72650    0.33820    0.72650   1.00
O2       0.72650    0.16180    0.77350   1.00
O2       0.66180    0.22650    0.77350   1.00
O2       0.72650    0.22650    0.83820   1.00
O2       0.83820    0.27350    0.77350   1.00
O2       0.77350    0.33820    0.77350   1.00
O2       0.77350    0.27350    0.83820   1.00
C1       0.75000    0.25000    0.64480   1.00
C1       0.75000    0.14480    0.75000   1.00
C1       0.85520    0.25000    0.75000   1.00
C1       0.64480    0.25000    0.75000   1.00
C1       0.75000    0.35520    0.75000   1.00
C1       0.75000    0.25000    0.85520   1.00
O1       0.25000    0.75000    0.75000   1.00
Zn1      0.28280    0.71720    0.71720   1.00
Zn1      0.21720    0.78280    0.71720   1.00
Zn1      0.21720    0.71720    0.78280   1.00
Zn1      0.28280    0.78280    0.78280   1.00
O2       0.27350    0.72650    0.66180   1.00
O2       0.27350    0.66180    0.72650   1.00
O2       0.33820    0.72650    0.72650   1.00
O2       0.22650    0.77350    0.66180   1.00
O2       0.16180    0.77350    0.72650   1.00
O2       0.22650    0.83820    0.72650   1.00
O2       0.22650    0.66180    0.77350   1.00
O2       0.16180    0.72650    0.77350   1.00
O2       0.22650    0.72650    0.83820   1.00
O2       0.33820    0.77350    0.77350   1.00
O2       0.27350    0.83820    0.77350   1.00
O2       0.27350    0.77350    0.83820   1.00
C1       0.25000    0.75000    0.64480   1.00
C1       0.25000    0.64480    0.75000   1.00
C1       0.35520    0.75000    0.75000   1.00
C1       0.14480    0.75000    0.75000   1.00
C1       0.25000    0.85520    0.75000   1.00
C1       0.25000    0.75000    0.85520   1.00
C4       0.75018    0.75007    0.97915   1.00
C4       0.74982    0.74993    1.02085   1.00
C3a      0.76736    0.78123    0.95746   1.00
C3       0.78312    0.73875    1.04232   1.00
C3       0.73356    0.71913    0.95768   1.00
C3a      0.71597    0.76088    1.04254   1.00
C2       0.75003    0.74993    0.89488   1.00
C2       0.75003    0.74992    1.10512   1.00
C3       0.76694    0.78070    0.91595   1.00
C3       0.78321    0.73888    1.08363   1.00
C3       0.73341    0.71916    0.91637   1.00
C3       0.71664    0.76078    1.08405   1.00
C5       0.78585    0.81584    0.97772   1.00
H1       0.80937    0.73024    1.02691   1.00
H1       0.77985    0.80454    0.89979   1.00
H1       0.80943    0.73032    1.09901   1.00
H1       0.72016    0.69497    0.90099   1.00
H1       0.69090    0.76932    1.10021   1.00
C5       0.67880    0.77345    1.02228   1.00
H1       0.72025    0.69495    0.97309   1.00
H2       0.66060    0.79099    1.04256   1.00
H2       0.68569    0.79292    0.99731   1.00
H2       0.78710    0.84108    0.95744   1.00
H2       0.76750    0.82531    1.00269   1.00
N1       0.65664    0.73961    1.00857   1.00
C6       0.63952    0.71248    1.03073   1.00
C6       0.64872    0.73055    0.97154   1.00
C6       0.62087    0.68546    1.00759   1.00
C6       0.62671    0.69695    0.96995   1.00
H3       0.64073    0.71203    1.06197   1.00
H3       0.65859    0.74715    0.94700   1.00
H3       0.60478    0.66021    1.01713   1.00
H3       0.61613    0.68243    0.94425   1.00
N1       0.82517    0.80634    0.99143   1.00
C6       0.83714    0.80516    1.02846   1.00
C6       0.85621    0.79829    0.96927   1.00
C6       0.87618    0.79574    1.03005   1.00
C6       0.88831    0.79136    0.99241   1.00
H3       0.81858    0.81051    1.05300   1.00
H3       0.85564    0.79713    0.93803   1.00
H3       0.89384    0.79240    1.05575   1.00
H3       0.91732    0.78398    0.98287   1.00
C4       0.75007    0.97915    0.75018   1.00
C4       0.74993    1.02085    0.74982   1.00
C3a      0.78123    0.95746    0.76736   1.00
C3       0.73875    1.04232    0.78312   1.00
C3       0.71913    0.95768    0.73356   1.00
C3a      0.76088    1.04254    0.71597   1.00
C2       0.74993    0.89488    0.75003   1.00
C2       0.74992    1.10512    0.75003   1.00
C3       0.78070    0.91595    0.76694   1.00
C3       0.73888    1.08363    0.78321   1.00
C3       0.71916    0.91637    0.73341   1.00
C3       0.76078    1.08405    0.71664   1.00
C5       0.81584    0.97772    0.78585   1.00
H1       0.73024    1.02691    0.80937   1.00
H1       0.80454    0.89979    0.77985   1.00
H1       0.73032    1.09901    0.80943   1.00
H1       0.69497    0.90099    0.72016   1.00
H1       0.76932    1.10021    0.69090   1.00
C5       0.77345    1.02228    0.67880   1.00
H1       0.69495    0.97309    0.72025   1.00
H2       0.79099    1.04256    0.66060   1.00
H2       0.79292    0.99731    0.68569   1.00
H2       0.84108    0.95744    0.78710   1.00
H2       0.82531    1.00269    0.76750   1.00
N1       0.73961    1.00857    0.65664   1.00
C6       0.71248    1.03073    0.63952   1.00
C6       0.73055    0.97154    0.64872   1.00
C6       0.68546    1.00759    0.62087   1.00
C6       0.69695    0.96995    0.62671   1.00
H3       0.71203    1.06197    0.64073   1.00
H3       0.74715    0.94700    0.65859   1.00
H3       0.66021    1.01713    0.60478   1.00
H3       0.68243    0.94425    0.61613   1.00
N1       0.80634    0.99143    0.82517   1.00
C6       0.80516    1.02846    0.83714   1.00
C6       0.79829    0.96927    0.85621   1.00
C6       0.79574    1.03005    0.87618   1.00
C6       0.79136    0.99241    0.88831   1.00
H3       0.81051    1.05300    0.81858   1.00
H3       0.79713    0.93803    0.85564   1.00
H3       0.79240    1.05575    0.89384   1.00
H3       0.78398    0.98287    0.91732   1.00
C4       0.52085    0.75018    0.74993   1.00
C4       0.47915    0.74982    0.75007   1.00
C3a      0.54254    0.76736    0.71877   1.00
C3       0.45768    0.78312    0.76125   1.00
C3       0.54232    0.73356    0.78087   1.00
C3a      0.45746    0.71597    0.73912   1.00
C2       0.60512    0.75003    0.75007   1.00
C2       0.39488    0.75003    0.75008   1.00
C3       0.58405    0.76694    0.71930   1.00
C3       0.41637    0.78321    0.76112   1.00
C3       0.58363    0.73341    0.78084   1.00
C3       0.41595    0.71664    0.73922   1.00
C5       0.52228    0.78585    0.68416   1.00
H1       0.47309    0.80937    0.76976   1.00
H1       0.60021    0.77985    0.69546   1.00
H1       0.40099    0.80943    0.76968   1.00
H1       0.59901    0.72016    0.80503   1.00
H1       0.39979    0.69090    0.73068   1.00
C5       0.47772    0.67880    0.72655   1.00
H1       0.52691    0.72025    0.80505   1.00
H2       0.45744    0.66060    0.70901   1.00
H2       0.50269    0.68569    0.70708   1.00
H2       0.54256    0.78710    0.65892   1.00
H2       0.49731    0.76750    0.67469   1.00
N1       0.49143    0.65664    0.76039   1.00
C6       0.46927    0.63952    0.78752   1.00
C6       0.52846    0.64872    0.76945   1.00
C6       0.49241    0.62087    0.81454   1.00
C6       0.53005    0.62671    0.80305   1.00
H3       0.43803    0.64073    0.78797   1.00
H3       0.55300    0.65859    0.75285   1.00
H3       0.48287    0.60478    0.83979   1.00
H3       0.55575    0.61613    0.81757   1.00
N1       0.50857    0.82517    0.69366   1.00
C6       0.47154    0.83714    0.69484   1.00
C6       0.53073    0.85621    0.70171   1.00
C6       0.46995    0.87618    0.70426   1.00
C6       0.50759    0.88831    0.70864   1.00
H3       0.44700    0.81858    0.68949   1.00
H3       0.56197    0.85564    0.70287   1.00
H3       0.44425    0.89384    0.70760   1.00
H3       0.51713    0.91732    0.71602   1.00
C4       0.97915    0.75018    0.75007   1.00
C4       1.02085    0.74982    0.74993   1.00
C3a      0.95746    0.76736    0.78123   1.00
C3       1.04232    0.78312    0.73875   1.00
C3       0.95768    0.73356    0.71913   1.00
C3a      1.04254    0.71597    0.76088   1.00
C2       0.89488    0.75003    0.74993   1.00
C2       1.10512    0.75003    0.74992   1.00
C3       0.91595    0.76694    0.78070   1.00
C3       1.08363    0.78321    0.73888   1.00
C3       0.91637    0.73341    0.71916   1.00
C3       1.08405    0.71664    0.76078   1.00
C5       0.97772    0.78585    0.81584   1.00
H1       1.02691    0.80937    0.73024   1.00
H1       0.89979    0.77985    0.80454   1.00
H1       1.09901    0.80943    0.73032   1.00
H1       0.90099    0.72016    0.69497   1.00
H1       1.10021    0.69090    0.76932   1.00
C5       1.02228    0.67880    0.77345   1.00
H1       0.97309    0.72025    0.69495   1.00
H2       1.04256    0.66060    0.79099   1.00
H2       0.99731    0.68569    0.79292   1.00
H2       0.95744    0.78710    0.84108   1.00
H2       1.00269    0.76750    0.82531   1.00
N1       1.00857    0.65664    0.73961   1.00
C6       1.03073    0.63952    0.71248   1.00
C6       0.97154    0.64872    0.73055   1.00
C6       1.00759    0.62087    0.68546   1.00
C6       0.96995    0.62671    0.69695   1.00
H3       1.06197    0.64073    0.71203   1.00
H3       0.94700    0.65859    0.74715   1.00
H3       1.01713    0.60478    0.66021   1.00
H3       0.94425    0.61613    0.68243   1.00
N1       0.99143    0.82517    0.80634   1.00
C6       1.02846    0.83714    0.80516   1.00
C6       0.96927    0.85621    0.79829   1.00
C6       1.03005    0.87618    0.79574   1.00
C6       0.99241    0.88831    0.79136   1.00
H3       1.05300    0.81858    0.81051   1.00
H3       0.93803    0.85564    0.79713   1.00
H3       1.05575    0.89384    0.79240   1.00
H3       0.98287    0.91732    0.78398   1.00
C4       0.74993    0.52085    0.75018   1.00
C4       0.75007    0.47915    0.74982   1.00
C3a      0.71877    0.54254    0.76736   1.00
C3       0.76125    0.45768    0.78312   1.00
C3       0.78087    0.54232    0.73356   1.00
C3a      0.73912    0.45746    0.71597   1.00
C2       0.75007    0.60512    0.75003   1.00
C2       0.75008    0.39488    0.75003   1.00
C3       0.71930    0.58405    0.76694   1.00
C3       0.76112    0.41637    0.78321   1.00
C3       0.78084    0.58363    0.73341   1.00
C3       0.73922    0.41595    0.71664   1.00
C5       0.68416    0.52228    0.78585   1.00
H1       0.76976    0.47309    0.80937   1.00
H1       0.69546    0.60021    0.77985   1.00
H1       0.76968    0.40099    0.80943   1.00
H1       0.80503    0.59901    0.72016   1.00
H1       0.73068    0.39979    0.69090   1.00
C5       0.72655    0.47772    0.67880   1.00
H1       0.80505    0.52691    0.72025   1.00
H2       0.70901    0.45744    0.66060   1.00
H2       0.70708    0.50269    0.68569   1.00
H2       0.65892    0.54256    0.78710   1.00
H2       0.67469    0.49731    0.76750   1.00
N1       0.76039    0.49143    0.65664   1.00
C6       0.78752    0.46927    0.63952   1.00
C6       0.76945    0.52846    0.64872   1.00
C6       0.81454    0.49241    0.62087   1.00
C6       0.80305    0.53005    0.62671   1.00
H3       0.78797    0.43803    0.64073   1.00
H3       0.75285    0.55300    0.65859   1.00
H3       0.83979    0.48287    0.60478   1.00
H3       0.81757    0.55575    0.61613   1.00
N1       0.69366    0.50857    0.82517   1.00
C6       0.69484    0.47154    0.83714   1.00
C6       0.70171    0.53073    0.85621   1.00
C6       0.70426    0.46995    0.87618   1.00
C6       0.70864    0.50759    0.88831   1.00
H3       0.68949    0.44700    0.81858   1.00
H3       0.70287    0.56197    0.85564   1.00
H3       0.70760    0.44425    0.89384   1.00
H3       0.71602    0.51713    0.91732   1.00
C4       0.75018    0.74993    0.52085   1.00
C4       0.74982    0.75007    0.47915   1.00
C3a      0.76736    0.71877    0.54254   1.00
C3       0.78312    0.76125    0.45768   1.00
C3       0.73356    0.78087    0.54232   1.00
C3a      0.71597    0.73912    0.45746   1.00
C2       0.75003    0.75007    0.60512   1.00
C2       0.75003    0.75008    0.39488   1.00
C3       0.76694    0.71930    0.58405   1.00
C3       0.78321    0.76112    0.41637   1.00
C3       0.73341    0.78084    0.58363   1.00
C3       0.71664    0.73922    0.41595   1.00
C5       0.78585    0.68416    0.52228   1.00
H1       0.80937    0.76976    0.47309   1.00
H1       0.77985    0.69546    0.60021   1.00
H1       0.80943    0.76968    0.40099   1.00
H1       0.72016    0.80503    0.59901   1.00
H1       0.69090    0.73068    0.39979   1.00
C5       0.67880    0.72655    0.47772   1.00
H1       0.72025    0.80505    0.52691   1.00
H2       0.66060    0.70901    0.45744   1.00
H2       0.68569    0.70708    0.50269   1.00
H2       0.78710    0.65892    0.54256   1.00
H2       0.76750    0.67469    0.49731   1.00
N1       0.65664    0.76039    0.49143   1.00
C6       0.63952    0.78752    0.46927   1.00
C6       0.64872    0.76945    0.52846   1.00
C6       0.62087    0.81454    0.49241   1.00
C6       0.62671    0.80305    0.53005   1.00
H3       0.64073    0.78797    0.43803   1.00
H3       0.65859    0.75285    0.55300   1.00
H3       0.60478    0.83979    0.48287   1.00
H3       0.61613    0.81757    0.55575   1.00
N1       0.82517    0.69366    0.50857   1.00
C6       0.83714    0.69484    0.47154   1.00
C6       0.85621    0.70171    0.53073   1.00
C6       0.87618    0.70426    0.46995   1.00
C6       0.88831    0.70864    0.50759   1.00
H3       0.81858    0.68949    0.44700   1.00
H3       0.85564    0.70287    0.56197   1.00
H3       0.89384    0.70760    0.44425   1.00
H3       0.91732    0.71602    0.51713   1.00
C4       0.25018    0.25007    0.97915   1.00
C4       0.24982    0.24993    1.02085   1.00
C3a      0.26736    0.28123    0.95746   1.00
C3       0.28312    0.23875    1.04232   1.00
C3       0.23356    0.21913    0.95768   1.00
C3a      0.21597    0.26088    1.04254   1.00
C2       0.25003    0.24993    0.89488   1.00
C2       0.25003    0.24992    1.10512   1.00
C3       0.26694    0.28070    0.91595   1.00
C3       0.28321    0.23888    1.08363   1.00
C3       0.23341    0.21916    0.91637   1.00
C3       0.21664    0.26078    1.08405   1.00
C5       0.28585    0.31584    0.97772   1.00
H1       0.30937    0.23024    1.02691   1.00
H1       0.27985    0.30454    0.89979   1.00
H1       0.30943    0.23032    1.09901   1.00
H1       0.22016    0.19497    0.90099   1.00
H1       0.19090    0.26932    1.10021   1.00
C5       0.17880    0.27345    1.02228   1.00
H1       0.22025    0.19495    0.97309   1.00
H2       0.16060    0.29099    1.04256   1.00
H2       0.18569    0.29292    0.99731   1.00
H2       0.28710    0.34108    0.95744   1.00
H2       0.26750    0.32531    1.00269   1.00
N1       0.15664    0.23961    1.00857   1.00
C6       0.13952    0.21248    1.03073   1.00
C6       0.14872    0.23055    0.97154   1.00
C6       0.12087    0.18546    1.00759   1.00
C6       0.12671    0.19695    0.96995   1.00
H3       0.14073    0.21203    1.06197   1.00
H3       0.15859    0.24715    0.94700   1.00
H3       0.10478    0.16021    1.01713   1.00
H3       0.11613    0.18243    0.94425   1.00
N1       0.32517    0.30634    0.99143   1.00
C6       0.33714    0.30516    1.02846   1.00
C6       0.35621    0.29829    0.96927   1.00
C6       0.37618    0.29574    1.03005   1.00
C6       0.38831    0.29136    0.99241   1.00
H3       0.31858    0.31051    1.05300   1.00
H3       0.35564    0.29713    0.93803   1.00
H3       0.39384    0.29240    1.05575   1.00
H3       0.41732    0.28398    0.98287   1.00
C4       0.25007    0.47915    0.75018   1.00
C4       0.24993    0.52085    0.74982   1.00
C3a      0.28123    0.45746    0.76736   1.00
C3       0.23875    0.54232    0.78312   1.00
C3       0.21913    0.45768    0.73356   1.00
C3a      0.26088    0.54254    0.71597   1.00
C2       0.24993    0.39488    0.75003   1.00
C2       0.24992    0.60512    0.75003   1.00
C3       0.28070    0.41595    0.76694   1.00
C3       0.23888    0.58363    0.78321   1.00
C3       0.21916    0.41637    0.73341   1.00
C3       0.26078    0.58405    0.71664   1.00
C5       0.31584    0.47772    0.78585   1.00
H1       0.23024    0.52691    0.80937   1.00
H1       0.30454    0.39979    0.77985   1.00
H1       0.23032    0.59901    0.80943   1.00
H1       0.19497    0.40099    0.72016   1.00
H1       0.26932    0.60021    0.69090   1.00
C5       0.27345    0.52228    0.67880   1.00
H1       0.19495    0.47309    0.72025   1.00
H2       0.29099    0.54256    0.66060   1.00
H2       0.29292    0.49731    0.68569   1.00
H2       0.34108    0.45744    0.78710   1.00
H2       0.32531    0.50269    0.76750   1.00
N1       0.23961    0.50857    0.65664   1.00
C6       0.21248    0.53073    0.63952   1.00
C6       0.23055    0.47154    0.64872   1.00
C6       0.18546    0.50759    0.62087   1.00
C6       0.19695    0.46995    0.62671   1.00
H3       0.21203    0.56197    0.64073   1.00
H3       0.24715    0.44700    0.65859   1.00
H3       0.16021    0.51713    0.60478   1.00
H3       0.18243    0.44425    0.61613   1.00
N1       0.30634    0.49143    0.82517   1.00
C6       0.30516    0.52846    0.83714   1.00
C6       0.29829    0.46927    0.85621   1.00
C6       0.29574    0.53005    0.87618   1.00
C6       0.29136    0.49241    0.88831   1.00
H3       0.31051    0.55300    0.81858   1.00
H3       0.29713    0.43803    0.85564   1.00
H3       0.29240    0.55575    0.89384   1.00
H3       0.28398    0.48287    0.91732   1.00
C4       0.02085    0.25018    0.74993   1.00
C4       -0.02085   0.24982    0.75007   1.00
C3a      0.04254    0.26736    0.71877   1.00
C3       -0.04232   0.28312    0.76125   1.00
C3       0.04232    0.23356    0.78087   1.00
C3a      -0.04254   0.21597    0.73912   1.00
C2       0.10512    0.25003    0.75007   1.00
C2       -0.10512   0.25003    0.75008   1.00
C3       0.08405    0.26694    0.71930   1.00
C3       -0.08363   0.28321    0.76112   1.00
C3       0.08363    0.23341    0.78084   1.00
C3       -0.08405   0.21664    0.73922   1.00
C5       0.02228    0.28585    0.68416   1.00
H1       -0.02691   0.30937    0.76976   1.00
H1       0.10021    0.27985    0.69546   1.00
H1       -0.09901   0.30943    0.76968   1.00
H1       0.09901    0.22016    0.80503   1.00
H1       -0.10021   0.19090    0.73068   1.00
C5       -0.02228   0.17880    0.72655   1.00
H1       0.02691    0.22025    0.80505   1.00
H2       -0.04256   0.16060    0.70901   1.00
H2       0.00269    0.18569    0.70708   1.00
H2       0.04256    0.28710    0.65892   1.00
H2       -0.00269   0.26750    0.67469   1.00
N1       -0.00857   0.15664    0.76039   1.00
C6       -0.03073   0.13952    0.78752   1.00
C6       0.02846    0.14872    0.76945   1.00
C6       -0.00759   0.12087    0.81454   1.00
C6       0.03005    0.12671    0.80305   1.00
H3       -0.06197   0.14073    0.78797   1.00
H3       0.05300    0.15859    0.75285   1.00
H3       -0.01713   0.10478    0.83979   1.00
H3       0.05575    0.11613    0.81757   1.00
N1       0.00857    0.32517    0.69366   1.00
C6       -0.02846   0.33714    0.69484   1.00
C6       0.03073    0.35621    0.70171   1.00
C6       -0.03005   0.37618    0.70426   1.00
C6       0.00759    0.38831    0.70864   1.00
H3       -0.05300   0.31858    0.68949   1.00
H3       0.06197    0.35564    0.70287   1.00
H3       -0.05575   0.39384    0.70760   1.00
H3       0.01713    0.41732    0.71602   1.00
C4       0.47915    0.25018    0.75007   1.00
C4       0.52085    0.24982    0.74993   1.00
C3a      0.45746    0.26736    0.78123   1.00
C3       0.54232    0.28312    0.73875   1.00
C3       0.45768    0.23356    0.71913   1.00
C3a      0.54254    0.21597    0.76088   1.00
C2       0.39488    0.25003    0.74993   1.00
C2       0.60512    0.25003    0.74992   1.00
C3       0.41595    0.26694    0.78070   1.00
C3       0.58363    0.28321    0.73888   1.00
C3       0.41637    0.23341    0.71916   1.00
C3       0.58405    0.21664    0.76078   1.00
C5       0.47772    0.28585    0.81584   1.00
H1       0.52691    0.30937    0.73024   1.00
H1       0.39979    0.27985    0.80454   1.00
H1       0.59901    0.30943    0.73032   1.00
H1       0.40099    0.22016    0.69497   1.00
H1       0.60021    0.19090    0.76932   1.00
C5       0.52228    0.17880    0.77345   1.00
H1       0.47309    0.22025    0.69495   1.00
H2       0.54256    0.16060    0.79099   1.00
H2       0.49731    0.18569    0.79292   1.00
H2       0.45744    0.28710    0.84108   1.00
H2       0.50269    0.26750    0.82531   1.00
N1       0.50857    0.15664    0.73961   1.00
C6       0.53073    0.13952    0.71248   1.00
C6       0.47154    0.14872    0.73055   1.00
C6       0.50759    0.12087    0.68546   1.00
C6       0.46995    0.12671    0.69695   1.00
H3       0.56197    0.14073    0.71203   1.00
H3       0.44700    0.15859    0.74715   1.00
H3       0.51713    0.10478    0.66021   1.00
H3       0.44425    0.11613    0.68243   1.00
N1       0.49143    0.32517    0.80634   1.00
C6       0.52846    0.33714    0.80516   1.00
C6       0.46927    0.35621    0.79829   1.00
C6       0.53005    0.37618    0.79574   1.00
C6       0.49241    0.38831    0.79136   1.00
H3       0.55300    0.31858    0.81051   1.00
H3       0.43803    0.35564    0.79713   1.00
H3       0.55575    0.39384    0.79240   1.00
H3       0.48287    0.41732    0.78398   1.00
C4       0.24993    0.02085    0.75018   1.00
C4       0.25007    -0.02085   0.74982   1.00
C3a      0.21877    0.04254    0.76736   1.00
C3       0.26125    -0.04232   0.78312   1.00
C3       0.28087    0.04232    0.73356   1.00
C3a      0.23912    -0.04254   0.71597   1.00
C2       0.25007    0.10512    0.75003   1.00
C2       0.25008    -0.10512   0.75003   1.00
C3       0.21930    0.08405    0.76694   1.00
C3       0.26112    -0.08363   0.78321   1.00
C3       0.28084    0.08363    0.73341   1.00
C3       0.23922    -0.08405   0.71664   1.00
C5       0.18416    0.02228    0.78585   1.00
H1       0.26976    -0.02691   0.80937   1.00
H1       0.19546    0.10021    0.77985   1.00
H1       0.26968    -0.09901   0.80943   1.00
H1       0.30503    0.09901    0.72016   1.00
H1       0.23068    -0.10021   0.69090   1.00
C5       0.22655    -0.02228   0.67880   1.00
H1       0.30505    0.02691    0.72025   1.00
H2       0.20901    -0.04256   0.66060   1.00
H2       0.20708    0.00269    0.68569   1.00
H2       0.15892    0.04256    0.78710   1.00
H2       0.17469    -0.00269   0.76750   1.00
N1       0.26039    -0.00857   0.65664   1.00
C6       0.28752    -0.03073   0.63952   1.00
C6       0.26945    0.02846    0.64872   1.00
C6       0.31454    -0.00759   0.62087   1.00
C6       0.30305    0.03005    0.62671   1.00
H3       0.28797    -0.06197   0.64073   1.00
H3       0.25285    0.05300    0.65859   1.00
H3       0.33979    -0.01713   0.60478   1.00
H3       0.31757    0.05575    0.61613   1.00
N1       0.19366    0.00857    0.82517   1.00
C6       0.19484    -0.02846   0.83714   1.00
C6       0.20171    0.03073    0.85621   1.00
C6       0.20426    -0.03005   0.87618   1.00
C6       0.20864    0.00759    0.88831   1.00
H3       0.18949    -0.05300   0.81858   1.00
H3       0.20287    0.06197    0.85564   1.00
H3       0.20760    -0.05575   0.89384   1.00
H3       0.21602    0.01713    0.91732   1.00
C4       0.25018    0.24993    0.52085   1.00
C4       0.24982    0.25007    0.47915   1.00
C3a      0.26736    0.21877    0.54254   1.00
C3       0.28312    0.26125    0.45768   1.00
C3       0.23356    0.28087    0.54232   1.00
C3a      0.21597    0.23912    0.45746   1.00
C2       0.25003    0.25007    0.60512   1.00
C2       0.25003    0.25008    0.39488   1.00
C3       0.26694    0.21930    0.58405   1.00
C3       0.28321    0.26112    0.41637   1.00
C3       0.23341    0.28084    0.58363   1.00
C3       0.21664    0.23922    0.41595   1.00
C5       0.28585    0.18416    0.52228   1.00
H1       0.30937    0.26976    0.47309   1.00
H1       0.27985    0.19546    0.60021   1.00
H1       0.30943    0.26968    0.40099   1.00
H1       0.22016    0.30503    0.59901   1.00
H1       0.19090    0.23068    0.39979   1.00
C5       0.17880    0.22655    0.47772   1.00
H1       0.22025    0.30505    0.52691   1.00
H2       0.16060    0.20901    0.45744   1.00
H2       0.18569    0.20708    0.50269   1.00
H2       0.28710    0.15892    0.54256   1.00
H2       0.26750    0.17469    0.49731   1.00
N1       0.15664    0.26039    0.49143   1.00
C6       0.13952    0.28752    0.46927   1.00
C6       0.14872    0.26945    0.52846   1.00
C6       0.12087    0.31454    0.49241   1.00
C6       0.12671    0.30305    0.53005   1.00
H3       0.14073    0.28797    0.43803   1.00
H3       0.15859    0.25285    0.55300   1.00
H3       0.10478    0.33979    0.48287   1.00
H3       0.11613    0.31757    0.55575   1.00
N1       0.32517    0.19366    0.50857   1.00
C6       0.33714    0.19484    0.47154   1.00
C6       0.35621    0.20171    0.53073   1.00
C6       0.37618    0.20426    0.46995   1.00
C6       0.38831    0.20864    0.50759   1.00
H3       0.31858    0.18949    0.44700   1.00
H3       0.35564    0.20287    0.56197   1.00
H3       0.39384    0.20760    0.44425   1.00
H3       0.41732    0.21602    0.51713   1.00
C4       0.25018    0.75007    0.47915   1.00
C4       0.24982    0.74993    0.52085   1.00
C3a      0.26736    0.78123    0.45746   1.00
C3       0.28312    0.73875    0.54232   1.00
C3       0.23356    0.71913    0.45768   1.00
C3a      0.21597    0.76088    0.54254   1.00
C2       0.25003    0.74993    0.39488   1.00
C2       0.25003    0.74992    0.60512   1.00
C3       0.26694    0.78070    0.41595   1.00
C3       0.28321    0.73888    0.58363   1.00
C3       0.23341    0.71916    0.41637   1.00
C3       0.21664    0.76078    0.58405   1.00
C5       0.28585    0.81584    0.47772   1.00
H1       0.30937    0.73024    0.52691   1.00
H1       0.27985    0.80454    0.39979   1.00
H1       0.30943    0.73032    0.59901   1.00
H1       0.22016    0.69497    0.40099   1.00
H1       0.19090    0.76932    0.60021   1.00
C5       0.17880    0.77345    0.52228   1.00
H1       0.22025    0.69495    0.47309   1.00
H2       0.16060    0.79099    0.54256   1.00
H2       0.18569    0.79292    0.49731   1.00
H2       0.28710    0.84108    0.45744   1.00
H2       0.26750    0.82531    0.50269   1.00
N1       0.15664    0.73961    0.50857   1.00
C6       0.13952    0.71248    0.53073   1.00
C6       0.14872    0.73055    0.47154   1.00
C6       0.12087    0.68546    0.50759   1.00
C6       0.12671    0.69695    0.46995   1.00
H3       0.14073    0.71203    0.56197   1.00
H3       0.15859    0.74715    0.44700   1.00
H3       0.10478    0.66021    0.51713   1.00
H3       0.11613    0.68243    0.44425   1.00
N1       0.32517    0.80634    0.49143   1.00
C6       0.33714    0.80516    0.52846   1.00
C6       0.35621    0.79829    0.46927   1.00
C6       0.37618    0.79574    0.53005   1.00
C6       0.38831    0.79136    0.49241   1.00
H3       0.31858    0.81051    0.55300   1.00
H3       0.35564    0.79713    0.43803   1.00
H3       0.39384    0.79240    0.55575   1.00
H3       0.41732    0.78398    0.48287   1.00
C4       0.25007    0.97915    0.25018   1.00
C4       0.24993    1.02085    0.24982   1.00
C3a      0.28123    0.95746    0.26736   1.00
C3       0.23875    1.04232    0.28312   1.00
C3       0.21913    0.95768    0.23356   1.00
C3a      0.26088    1.04254    0.21597   1.00
C2       0.24993    0.89488    0.25003   1.00
C2       0.24992    1.10512    0.25003   1.00
C3       0.28070    0.91595    0.26694   1.00
C3       0.23888    1.08363    0.28321   1.00
C3       0.21916    0.91637    0.23341   1.00
C3       0.26078    1.08405    0.21664   1.00
C5       0.31584    0.97772    0.28585   1.00
H1       0.23024    1.02691    0.30937   1.00
H1       0.30454    0.89979    0.27985   1.00
H1       0.23032    1.09901    0.30943   1.00
H1       0.19497    0.90099    0.22016   1.00
H1       0.26932    1.10021    0.19090   1.00
C5       0.27345    1.02228    0.17880   1.00
H1       0.19495    0.97309    0.22025   1.00
H2       0.29099    1.04256    0.16060   1.00
H2       0.29292    0.99731    0.18569   1.00
H2       0.34108    0.95744    0.28710   1.00
H2       0.32531    1.00269    0.26750   1.00
N1       0.23961    1.00857    0.15664   1.00
C6       0.21248    1.03073    0.13952   1.00
C6       0.23055    0.97154    0.14872   1.00
C6       0.18546    1.00759    0.12087   1.00
C6       0.19695    0.96995    0.12671   1.00
H3       0.21203    1.06197    0.14073   1.00
H3       0.24715    0.94700    0.15859   1.00
H3       0.16021    1.01713    0.10478   1.00
H3       0.18243    0.94425    0.11613   1.00
N1       0.30634    0.99143    0.32517   1.00
C6       0.30516    1.02846    0.33714   1.00
C6       0.29829    0.96927    0.35621   1.00
C6       0.29574    1.03005    0.37618   1.00
C6       0.29136    0.99241    0.38831   1.00
H3       0.31051    1.05300    0.31858   1.00
H3       0.29713    0.93803    0.35564   1.00
H3       0.29240    1.05575    0.39384   1.00
H3       0.28398    0.98287    0.41732   1.00
C4       0.02085    0.75018    0.24993   1.00
C4       -0.02085   0.74982    0.25007   1.00
C3a      0.04254    0.76736    0.21877   1.00
C3       -0.04232   0.78312    0.26125   1.00
C3       0.04232    0.73356    0.28087   1.00
C3a      -0.04254   0.71597    0.23912   1.00
C2       0.10512    0.75003    0.25007   1.00
C2       -0.10512   0.75003    0.25008   1.00
C3       0.08405    0.76694    0.21930   1.00
C3       -0.08363   0.78321    0.26112   1.00
C3       0.08363    0.73341    0.28084   1.00
C3       -0.08405   0.71664    0.23922   1.00
C5       0.02228    0.78585    0.18416   1.00
H1       -0.02691   0.80937    0.26976   1.00
H1       0.10021    0.77985    0.19546   1.00
H1       -0.09901   0.80943    0.26968   1.00
H1       0.09901    0.72016    0.30503   1.00
H1       -0.10021   0.69090    0.23068   1.00
C5       -0.02228   0.67880    0.22655   1.00
H1       0.02691    0.72025    0.30505   1.00
H2       -0.04256   0.66060    0.20901   1.00
H2       0.00269    0.68569    0.20708   1.00
H2       0.04256    0.78710    0.15892   1.00
H2       -0.00269   0.76750    0.17469   1.00
N1       -0.00857   0.65664    0.26039   1.00
C6       -0.03073   0.63952    0.28752   1.00
C6       0.02846    0.64872    0.26945   1.00
C6       -0.00759   0.62087    0.31454   1.00
C6       0.03005    0.62671    0.30305   1.00
H3       -0.06197   0.64073    0.28797   1.00
H3       0.05300    0.65859    0.25285   1.00
H3       -0.01713   0.60478    0.33979   1.00
H3       0.05575    0.61613    0.31757   1.00
N1       0.00857    0.82517    0.19366   1.00
C6       -0.02846   0.83714    0.19484   1.00
C6       0.03073    0.85621    0.20171   1.00
C6       -0.03005   0.87618    0.20426   1.00
C6       0.00759    0.88831    0.20864   1.00
H3       -0.05300   0.81858    0.18949   1.00
H3       0.06197    0.85564    0.20287   1.00
H3       -0.05575   0.89384    0.20760   1.00
H3       0.01713    0.91732    0.21602   1.00
C4       0.47915    0.75018    0.25007   1.00
C4       0.52085    0.74982    0.24993   1.00
C3a      0.45746    0.76736    0.28123   1.00
C3       0.54232    0.78312    0.23875   1.00
C3       0.45768    0.73356    0.21913   1.00
C3a      0.54254    0.71597    0.26088   1.00
C2       0.39488    0.75003    0.24993   1.00
C2       0.60512    0.75003    0.24992   1.00
C3       0.41595    0.76694    0.28070   1.00
C3       0.58363    0.78321    0.23888   1.00
C3       0.41637    0.73341    0.21916   1.00
C3       0.58405    0.71664    0.26078   1.00
C5       0.47772    0.78585    0.31584   1.00
H1       0.52691    0.80937    0.23024   1.00
H1       0.39979    0.77985    0.30454   1.00
H1       0.59901    0.80943    0.23032   1.00
H1       0.40099    0.72016    0.19497   1.00
H1       0.60021    0.69090    0.26932   1.00
C5       0.52228    0.67880    0.27345   1.00
H1       0.47309    0.72025    0.19495   1.00
H2       0.54256    0.66060    0.29099   1.00
H2       0.49731    0.68569    0.29292   1.00
H2       0.45744    0.78710    0.34108   1.00
H2       0.50269    0.76750    0.32531   1.00
N1       0.50857    0.65664    0.23961   1.00
C6       0.53073    0.63952    0.21248   1.00
C6       0.47154    0.64872    0.23055   1.00
C6       0.50759    0.62087    0.18546   1.00
C6       0.46995    0.62671    0.19695   1.00
H3       0.56197    0.64073    0.21203   1.00
H3       0.44700    0.65859    0.24715   1.00
H3       0.51713    0.60478    0.16021   1.00
H3       0.44425    0.61613    0.18243   1.00
N1       0.49143    0.82517    0.30634   1.00
C6       0.52846    0.83714    0.30516   1.00
C6       0.46927    0.85621    0.29829   1.00
C6       0.53005    0.87618    0.29574   1.00
C6       0.49241    0.88831    0.29136   1.00
H3       0.55300    0.81858    0.31051   1.00
H3       0.43803    0.85564    0.29713   1.00
H3       0.55575    0.89384    0.29240   1.00
H3       0.48287    0.91732    0.28398   1.00
C4       0.24993    0.52085    0.25018   1.00
C4       0.25007    0.47915    0.24982   1.00
C3a      0.21877    0.54254    0.26736   1.00
C3       0.26125    0.45768    0.28312   1.00
C3       0.28087    0.54232    0.23356   1.00
C3a      0.23912    0.45746    0.21597   1.00
C2       0.25007    0.60512    0.25003   1.00
C2       0.25008    0.39488    0.25003   1.00
C3       0.21930    0.58405    0.26694   1.00
C3       0.26112    0.41637    0.28321   1.00
C3       0.28084    0.58363    0.23341   1.00
C3       0.23922    0.41595    0.21664   1.00
C5       0.18416    0.52228    0.28585   1.00
H1       0.26976    0.47309    0.30937   1.00
H1       0.19546    0.60021    0.27985   1.00
H1       0.26968    0.40099    0.30943   1.00
H1       0.30503    0.59901    0.22016   1.00
H1       0.23068    0.39979    0.19090   1.00
C5       0.22655    0.47772    0.17880   1.00
H1       0.30505    0.52691    0.22025   1.00
H2       0.20901    0.45744    0.16060   1.00
H2       0.20708    0.50269    0.18569   1.00
H2       0.15892    0.54256    0.28710   1.00
H2       0.17469    0.49731    0.26750   1.00
N1       0.26039    0.49143    0.15664   1.00
C6       0.28752    0.46927    0.13952   1.00
C6       0.26945    0.52846    0.14872   1.00
C6       0.31454    0.49241    0.12087   1.00
C6       0.30305    0.53005    0.12671   1.00
H3       0.28797    0.43803    0.14073   1.00
H3       0.25285    0.55300    0.15859   1.00
H3       0.33979    0.48287    0.10478   1.00
H3       0.31757    0.55575    0.11613   1.00
N1       0.19366    0.50857    0.32517   1.00
C6       0.19484    0.47154    0.33714   1.00
C6       0.20171    0.53073    0.35621   1.00
C6       0.20426    0.46995    0.37618   1.00
C6       0.20864    0.50759    0.38831   1.00
H3       0.18949    0.44700    0.31858   1.00
H3       0.20287    0.56197    0.35564   1.00
H3       0.20760    0.44425    0.39384   1.00
H3       0.21602    0.51713    0.41732   1.00
C4       0.25018    0.74993    0.02085   1.00
C4       0.24982    0.75007    -0.02085   1.00
C3a      0.26736    0.71877    0.04254   1.00
C3       0.28312    0.76125    -0.04232   1.00
C3       0.23356    0.78087    0.04232   1.00
C3a      0.21597    0.73912    -0.04254   1.00
C2       0.25003    0.75007    0.10512   1.00
C2       0.25003    0.75008    -0.10512   1.00
C3       0.26694    0.71930    0.08405   1.00
C3       0.28321    0.76112    -0.08363   1.00
C3       0.23341    0.78084    0.08363   1.00
C3       0.21664    0.73922    -0.08405   1.00
C5       0.28585    0.68416    0.02228   1.00
H1       0.30937    0.76976    -0.02691   1.00
H1       0.27985    0.69546    0.10021   1.00
H1       0.30943    0.76968    -0.09901   1.00
H1       0.22016    0.80503    0.09901   1.00
H1       0.19090    0.73068    -0.10021   1.00
C5       0.17880    0.72655    -0.02228   1.00
H1       0.22025    0.80505    0.02691   1.00
H2       0.16060    0.70901    -0.04256   1.00
H2       0.18569    0.70708    0.00269   1.00
H2       0.28710    0.65892    0.04256   1.00
H2       0.26750    0.67469    -0.00269   1.00
N1       0.15664    0.76039    -0.00857   1.00
C6       0.13952    0.78752    -0.03073   1.00
C6       0.14872    0.76945    0.02846   1.00
C6       0.12087    0.81454    -0.00759   1.00
C6       0.12671    0.80305    0.03005   1.00
H3       0.14073    0.78797    -0.06197   1.00
H3       0.15859    0.75285    0.05300   1.00
H3       0.10478    0.83979    -0.01713   1.00
H3       0.11613    0.81757    0.05575   1.00
N1       0.32517    0.69366    0.00857   1.00
C6       0.33714    0.69484    -0.02846   1.00
C6       0.35621    0.70171    0.03073   1.00
C6       0.37618    0.70426    -0.03005   1.00
C6       0.38831    0.70864    0.00759   1.00
H3       0.31858    0.68949    -0.05300   1.00
H3       0.35564    0.70287    0.06197   1.00
H3       0.39384    0.70760    -0.05575   1.00
H3       0.41732    0.71602    0.01713   1.00
C4       0.75018    0.25007    0.47915   1.00
C4       0.74982    0.24993    0.52085   1.00
C3a      0.76736    0.28123    0.45746   1.00
C3       0.78312    0.23875    0.54232   1.00
C3       0.73356    0.21913    0.45768   1.00
C3a      0.71597    0.26088    0.54254   1.00
C2       0.75003    0.24993    0.39488   1.00
C2       0.75003    0.24992    0.60512   1.00
C3       0.76694    0.28070    0.41595   1.00
C3       0.78321    0.23888    0.58363   1.00
C3       0.73341    0.21916    0.41637   1.00
C3       0.71664    0.26078    0.58405   1.00
C5       0.78585    0.31584    0.47772   1.00
H1       0.80937    0.23024    0.52691   1.00
H1       0.77985    0.30454    0.39979   1.00
H1       0.80943    0.23032    0.59901   1.00
H1       0.72016    0.19497    0.40099   1.00
H1       0.69090    0.26932    0.60021   1.00
C5       0.67880    0.27345    0.52228   1.00
H1       0.72025    0.19495    0.47309   1.00
H2       0.66060    0.29099    0.54256   1.00
H2       0.68569    0.29292    0.49731   1.00
H2       0.78710    0.34108    0.45744   1.00
H2       0.76750    0.32531    0.50269   1.00
N1       0.65664    0.23961    0.50857   1.00
C6       0.63952    0.21248    0.53073   1.00
C6       0.64872    0.23055    0.47154   1.00
C6       0.62087    0.18546    0.50759   1.00
C6       0.62671    0.19695    0.46995   1.00
H3       0.64073    0.21203    0.56197   1.00
H3       0.65859    0.24715    0.44700   1.00
H3       0.60478    0.16021    0.51713   1.00
H3       0.61613    0.18243    0.44425   1.00
N1       0.82517    0.30634    0.49143   1.00
C6       0.83714    0.30516    0.52846   1.00
C6       0.85621    0.29829    0.46927   1.00
C6       0.87618    0.29574    0.53005   1.00
C6       0.88831    0.29136    0.49241   1.00
H3       0.81858    0.31051    0.55300   1.00
H3       0.85564    0.29713    0.43803   1.00
H3       0.89384    0.29240    0.55575   1.00
H3       0.91732    0.28398    0.48287   1.00
C4       0.75007    0.47915    0.25018   1.00
C4       0.74993    0.52085    0.24982   1.00
C3a      0.78123    0.45746    0.26736   1.00
C3       0.73875    0.54232    0.28312   1.00
C3       0.71913    0.45768    0.23356   1.00
C3a      0.76088    0.54254    0.21597   1.00
C2       0.74993    0.39488    0.25003   1.00
C2       0.74992    0.60512    0.25003   1.00
C3       0.78070    0.41595    0.26694   1.00
C3       0.73888    0.58363    0.28321   1.00
C3       0.71916    0.41637    0.23341   1.00
C3       0.76078    0.58405    0.21664   1.00
C5       0.81584    0.47772    0.28585   1.00
H1       0.73024    0.52691    0.30937   1.00
H1       0.80454    0.39979    0.27985   1.00
H1       0.73032    0.59901    0.30943   1.00
H1       0.69497    0.40099    0.22016   1.00
H1       0.76932    0.60021    0.19090   1.00
C5       0.77345    0.52228    0.17880   1.00
H1       0.69495    0.47309    0.22025   1.00
H2       0.79099    0.54256    0.16060   1.00
H2       0.79292    0.49731    0.18569   1.00
H2       0.84108    0.45744    0.28710   1.00
H2       0.82531    0.50269    0.26750   1.00
N1       0.73961    0.50857    0.15664   1.00
C6       0.71248    0.53073    0.13952   1.00
C6       0.73055    0.47154    0.14872   1.00
C6       0.68546    0.50759    0.12087   1.00
C6       0.69695    0.46995    0.12671   1.00
H3       0.71203    0.56197    0.14073   1.00
H3       0.74715    0.44700    0.15859   1.00
H3       0.66021    0.51713    0.10478   1.00
H3       0.68243    0.44425    0.11613   1.00
N1       0.80634    0.49143    0.32517   1.00
C6       0.80516    0.52846    0.33714   1.00
C6       0.79829    0.46927    0.35621   1.00
C6       0.79574    0.53005    0.37618   1.00
C6       0.79136    0.49241    0.38831   1.00
H3       0.81051    0.55300    0.31858   1.00
H3       0.79713    0.43803    0.35564   1.00
H3       0.79240    0.55575    0.39384   1.00
H3       0.78398    0.48287    0.41732   1.00
C4       0.52085    0.25018    0.24993   1.00
C4       0.47915    0.24982    0.25007   1.00
C3a      0.54254    0.26736    0.21877   1.00
C3       0.45768    0.28312    0.26125   1.00
C3       0.54232    0.23356    0.28087   1.00
C3a      0.45746    0.21597    0.23912   1.00
C2       0.60512    0.25003    0.25007   1.00
C2       0.39488    0.25003    0.25008   1.00
C3       0.58405    0.26694    0.21930   1.00
C3       0.41637    0.28321    0.26112   1.00
C3       0.58363    0.23341    0.28084   1.00
C3       0.41595    0.21664    0.23922   1.00
C5       0.52228    0.28585    0.18416   1.00
H1       0.47309    0.30937    0.26976   1.00
H1       0.60021    0.27985    0.19546   1.00
H1       0.40099    0.30943    0.26968   1.00
H1       0.59901    0.22016    0.30503   1.00
H1       0.39979    0.19090    0.23068   1.00
C5       0.47772    0.17880    0.22655   1.00
H1       0.52691    0.22025    0.30505   1.00
H2       0.45744    0.16060    0.20901   1.00
H2       0.50269    0.18569    0.20708   1.00
H2       0.54256    0.28710    0.15892   1.00
H2       0.49731    0.26750    0.17469   1.00
N1       0.49143    0.15664    0.26039   1.00
C6       0.46927    0.13952    0.28752   1.00
C6       0.52846    0.14872    0.26945   1.00
C6       0.49241    0.12087    0.31454   1.00
C6       0.53005    0.12671    0.30305   1.00
H3       0.43803    0.14073    0.28797   1.00
H3       0.55300    0.15859    0.25285   1.00
H3       0.48287    0.10478    0.33979   1.00
H3       0.55575    0.11613    0.31757   1.00
N1       0.50857    0.32517    0.19366   1.00
C6       0.47154    0.33714    0.19484   1.00
C6       0.53073    0.35621    0.20171   1.00
C6       0.46995    0.37618    0.20426   1.00
C6       0.50759    0.38831    0.20864   1.00
H3       0.44700    0.31858    0.18949   1.00
H3       0.56197    0.35564    0.20287   1.00
H3       0.44425    0.39384    0.20760   1.00
H3       0.51713    0.41732    0.21602   1.00
C4       0.97915    0.25018    0.25007   1.00
C4       1.02085    0.24982    0.24993   1.00
C3a      0.95746    0.26736    0.28123   1.00
C3       1.04232    0.28312    0.23875   1.00
C3       0.95768    0.23356    0.21913   1.00
C3a      1.04254    0.21597    0.26088   1.00
C2       0.89488    0.25003    0.24993   1.00
C2       1.10512    0.25003    0.24992   1.00
C3       0.91595    0.26694    0.28070   1.00
C3       1.08363    0.28321    0.23888   1.00
C3       0.91637    0.23341    0.21916   1.00
C3       1.08405    0.21664    0.26078   1.00
C5       0.97772    0.28585    0.31584   1.00
H1       1.02691    0.30937    0.23024   1.00
H1       0.89979    0.27985    0.30454   1.00
H1       1.09901    0.30943    0.23032   1.00
H1       0.90099    0.22016    0.19497   1.00
H1       1.10021    0.19090    0.26932   1.00
C5       1.02228    0.17880    0.27345   1.00
H1       0.97309    0.22025    0.19495   1.00
H2       1.04256    0.16060    0.29099   1.00
H2       0.99731    0.18569    0.29292   1.00
H2       0.95744    0.28710    0.34108   1.00
H2       1.00269    0.26750    0.32531   1.00
N1       1.00857    0.15664    0.23961   1.00
C6       1.03073    0.13952    0.21248   1.00
C6       0.97154    0.14872    0.23055   1.00
C6       1.00759    0.12087    0.18546   1.00
C6       0.96995    0.12671    0.19695   1.00
H3       1.06197    0.14073    0.21203   1.00
H3       0.94700    0.15859    0.24715   1.00
H3       1.01713    0.10478    0.16021   1.00
H3       0.94425    0.11613    0.18243   1.00
N1       0.99143    0.32517    0.30634   1.00
C6       1.02846    0.33714    0.30516   1.00
C6       0.96927    0.35621    0.29829   1.00
C6       1.03005    0.37618    0.29574   1.00
C6       0.99241    0.38831    0.29136   1.00
H3       1.05300    0.31858    0.31051   1.00
H3       0.93803    0.35564    0.29713   1.00
H3       1.05575    0.39384    0.29240   1.00
H3       0.98287    0.41732    0.28398   1.00
C4       0.74993    0.02085    0.25018   1.00
C4       0.75007    -0.02085   0.24982   1.00
C3a      0.71877    0.04254    0.26736   1.00
C3       0.76125    -0.04232   0.28312   1.00
C3       0.78087    0.04232    0.23356   1.00
C3a      0.73912    -0.04254   0.21597   1.00
C2       0.75007    0.10512    0.25003   1.00
C2       0.75008    -0.10512   0.25003   1.00
C3       0.71930    0.08405    0.26694   1.00
C3       0.76112    -0.08363   0.28321   1.00
C3       0.78084    0.08363    0.23341   1.00
C3       0.73922    -0.08405   0.21664   1.00
C5       0.68416    0.02228    0.28585   1.00
H1       0.76976    -0.02691   0.30937   1.00
H1       0.69546    0.10021    0.27985   1.00
H1       0.76968    -0.09901   0.30943   1.00
H1       0.80503    0.09901    0.22016   1.00
H1       0.73068    -0.10021   0.19090   1.00
C5       0.72655    -0.02228   0.17880   1.00
H1       0.80505    0.02691    0.22025   1.00
H2       0.70901    -0.04256   0.16060   1.00
H2       0.70708    0.00269    0.18569   1.00
H2       0.65892    0.04256    0.28710   1.00
H2       0.67469    -0.00269   0.26750   1.00
N1       0.76039    -0.00857   0.15664   1.00
C6       0.78752    -0.03073   0.13952   1.00
C6       0.76945    0.02846    0.14872   1.00
C6       0.81454    -0.00759   0.12087   1.00
C6       0.80305    0.03005    0.12671   1.00
H3       0.78797    -0.06197   0.14073   1.00
H3       0.75285    0.05300    0.15859   1.00
H3       0.83979    -0.01713   0.10478   1.00
H3       0.81757    0.05575    0.11613   1.00
N1       0.69366    0.00857    0.32517   1.00
C6       0.69484    -0.02846   0.33714   1.00
C6       0.70171    0.03073    0.35621   1.00
C6       0.70426    -0.03005   0.37618   1.00
C6       0.70864    0.00759    0.38831   1.00
H3       0.68949    -0.05300   0.31858   1.00
H3       0.70287    0.06197    0.35564   1.00
H3       0.70760    -0.05575   0.39384   1.00
H3       0.71602    0.01713    0.41732   1.00
C4       0.75018    0.24993    0.02085   1.00
C4       0.74982    0.25007    -0.02085   1.00
C3a      0.76736    0.21877    0.04254   1.00
C3       0.78312    0.26125    -0.04232   1.00
C3       0.73356    0.28087    0.04232   1.00
C3a      0.71597    0.23912    -0.04254   1.00
C2       0.75003    0.25007    0.10512   1.00
C2       0.75003    0.25008    -0.10512   1.00
C3       0.76694    0.21930    0.08405   1.00
C3       0.78321    0.26112    -0.08363   1.00
C3       0.73341    0.28084    0.08363   1.00
C3       0.71664    0.23922    -0.08405   1.00
C5       0.78585    0.18416    0.02228   1.00
H1       0.80937    0.26976    -0.02691   1.00
H1       0.77985    0.19546    0.10021   1.00
H1       0.80943    0.26968    -0.09901   1.00
H1       0.72016    0.30503    0.09901   1.00
H1       0.69090    0.23068    -0.10021   1.00
C5       0.67880    0.22655    -0.02228   1.00
H1       0.72025    0.30505    0.02691   1.00
H2       0.66060    0.20901    -0.04256   1.00
H2       0.68569    0.20708    0.00269   1.00
H2       0.78710    0.15892    0.04256   1.00
H2       0.76750    0.17469    -0.00269   1.00
N1       0.65664    0.26039    -0.00857   1.00
C6       0.63952    0.28752    -0.03073   1.00
C6       0.64872    0.26945    0.02846   1.00
C6       0.62087    0.31454    -0.00759   1.00
C6       0.62671    0.30305    0.03005   1.00
H3       0.64073    0.28797    -0.06197   1.00
H3       0.65859    0.25285    0.05300   1.00
H3       0.60478    0.33979    -0.01713   1.00
H3       0.61613    0.31757    0.05575   1.00
N1       0.82517    0.19366    0.00857   1.00
C6       0.83714    0.19484    -0.02846   1.00
C6       0.85621    0.20171    0.03073   1.00
C6       0.87618    0.20426    -0.03005   1.00
C6       0.88831    0.20864    0.00759   1.00
H3       0.81858    0.18949    -0.05300   1.00
H3       0.85564    0.20287    0.06197   1.00
H3       0.89384    0.20760    -0.05575   1.00
H3       0.91732    0.21602    0.01713   1.00
