data_IRMOF10_SG202_Ligand12_label_k.

_audit_creation_method             'generated by an auxiliary program of Tobunporous'

_symmetry_space_group_name_H-M     'P 1'
_symmetry_Int_Tables_number        1
_symmetry_cell_setting             triclinic

_cell_length_a                    34.2800
_cell_length_b                    34.2800
_cell_length_c                    34.2800
_cell_angle_alpha                 90.0000
_cell_angle_beta                  90.0000
_cell_angle_gamma                 90.0000

loop_
_atom_site_label
_atom_site_fract_x
_atom_site_fract_y
_atom_site_fract_z
_atom_site_occupancy
O1       0.75000    0.75000    0.75000   1.00
Zn1      0.71720    0.78280    0.78280   1.00
Zn1      0.78280    0.71720    0.78280   1.00
Zn1      0.78280    0.78280    0.71720   1.00
Zn1      0.71720    0.71720    0.71720   1.00
O2       0.72650    0.77350    0.83820   1.00
O2       0.72650    0.83820    0.77350   1.00
O2       0.66180    0.77350    0.77350   1.00
O2       0.77350    0.72650    0.83820   1.00
O2       0.83820    0.72650    0.77350   1.00
O2       0.77350    0.66180    0.77350   1.00
O2       0.77350    0.83820    0.72650   1.00
O2       0.83820    0.77350    0.72650   1.00
O2       0.77350    0.77350    0.66180   1.00
O2       0.66180    0.72650    0.72650   1.00
O2       0.72650    0.66180    0.72650   1.00
O2       0.72650    0.72650    0.66180   1.00
C1       0.75000    0.75000    0.85520   1.00
C1       0.75000    0.85520    0.75000   1.00
C1       0.64480    0.75000    0.75000   1.00
C1       0.85520    0.75000    0.75000   1.00
C1       0.75000    0.64480    0.75000   1.00
C1       0.75000    0.75000    0.64480   1.00
O1       0.25000    0.25000    0.75000   1.00
Zn1      0.21720    0.28280    0.78280   1.00
Zn1      0.28280    0.21720    0.78280   1.00
Zn1      0.28280    0.28280    0.71720   1.00
Zn1      0.21720    0.21720    0.71720   1.00
O2       0.22650    0.27350    0.83820   1.00
O2       0.22650    0.33820    0.77350   1.00
O2       0.16180    0.27350    0.77350   1.00
O2       0.27350    0.22650    0.83820   1.00
O2       0.33820    0.22650    0.77350   1.00
O2       0.27350    0.16180    0.77350   1.00
O2       0.27350    0.33820    0.72650   1.00
O2       0.33820    0.27350    0.72650   1.00
O2       0.27350    0.27350    0.66180   1.00
O2       0.16180    0.22650    0.72650   1.00
O2       0.22650    0.16180    0.72650   1.00
O2       0.22650    0.22650    0.66180   1.00
C1       0.25000    0.25000    0.85520   1.00
C1       0.25000    0.35520    0.75000   1.00
C1       0.14480    0.25000    0.75000   1.00
C1       0.35520    0.25000    0.75000   1.00
C1       0.25000    0.14480    0.75000   1.00
C1       0.25000    0.25000    0.64480   1.00
O1       0.25000    0.75000    0.25000   1.00
Zn1      0.21720    0.78280    0.28280   1.00
Zn1      0.28280    0.71720    0.28280   1.00
Zn1      0.28280    0.78280    0.21720   1.00
Zn1      0.21720    0.71720    0.21720   1.00
O2       0.22650    0.77350    0.33820   1.00
O2       0.22650    0.83820    0.27350   1.00
O2       0.16180    0.77350    0.27350   1.00
O2       0.27350    0.72650    0.33820   1.00
O2       0.33820    0.72650    0.27350   1.00
O2       0.27350    0.66180    0.27350   1.00
O2       0.27350    0.83820    0.22650   1.00
O2       0.33820    0.77350    0.22650   1.00
O2       0.27350    0.77350    0.16180   1.00
O2       0.16180    0.72650    0.22650   1.00
O2       0.22650    0.66180    0.22650   1.00
O2       0.22650    0.72650    0.16180   1.00
C1       0.25000    0.75000    0.35520   1.00
C1       0.25000    0.85520    0.25000   1.00
C1       0.14480    0.75000    0.25000   1.00
C1       0.35520    0.75000    0.25000   1.00
C1       0.25000    0.64480    0.25000   1.00
C1       0.25000    0.75000    0.14480   1.00
O1       0.75000    0.25000    0.25000   1.00
Zn1      0.71720    0.28280    0.28280   1.00
Zn1      0.78280    0.21720    0.28280   1.00
Zn1      0.78280    0.28280    0.21720   1.00
Zn1      0.71720    0.21720    0.21720   1.00
O2       0.72650    0.27350    0.33820   1.00
O2       0.72650    0.33820    0.27350   1.00
O2       0.66180    0.27350    0.27350   1.00
O2       0.77350    0.22650    0.33820   1.00
O2       0.83820    0.22650    0.27350   1.00
O2       0.77350    0.16180    0.27350   1.00
O2       0.77350    0.33820    0.22650   1.00
O2       0.83820    0.27350    0.22650   1.00
O2       0.77350    0.27350    0.16180   1.00
O2       0.66180    0.22650    0.22650   1.00
O2       0.72650    0.16180    0.22650   1.00
O2       0.72650    0.22650    0.16180   1.00
C1       0.75000    0.25000    0.35520   1.00
C1       0.75000    0.35520    0.25000   1.00
C1       0.64480    0.25000    0.25000   1.00
C1       0.85520    0.25000    0.25000   1.00
C1       0.75000    0.14480    0.25000   1.00
C1       0.75000    0.25000    0.14480   1.00
O1       0.25000    0.25000    0.25000   1.00
Zn1      0.28280    0.21720    0.21720   1.00
Zn1      0.21720    0.28280    0.21720   1.00
Zn1      0.21720    0.21720    0.28280   1.00
Zn1      0.28280    0.28280    0.28280   1.00
O2       0.27350    0.22650    0.16180   1.00
O2       0.27350    0.16180    0.22650   1.00
O2       0.33820    0.22650    0.22650   1.00
O2       0.22650    0.27350    0.16180   1.00
O2       0.16180    0.27350    0.22650   1.00
O2       0.22650    0.33820    0.22650   1.00
O2       0.22650    0.16180    0.27350   1.00
O2       0.16180    0.22650    0.27350   1.00
O2       0.22650    0.22650    0.33820   1.00
O2       0.33820    0.27350    0.27350   1.00
O2       0.27350    0.33820    0.27350   1.00
O2       0.27350    0.27350    0.33820   1.00
C1       0.25000    0.25000    0.14480   1.00
C1       0.25000    0.14480    0.25000   1.00
C1       0.35520    0.25000    0.25000   1.00
C1       0.14480    0.25000    0.25000   1.00
C1       0.25000    0.35520    0.25000   1.00
C1       0.25000    0.25000    0.35520   1.00
O1       0.75000    0.75000    0.25000   1.00
Zn1      0.78280    0.71720    0.21720   1.00
Zn1      0.71720    0.78280    0.21720   1.00
Zn1      0.71720    0.71720    0.28280   1.00
Zn1      0.78280    0.78280    0.28280   1.00
O2       0.77350    0.72650    0.16180   1.00
O2       0.77350    0.66180    0.22650   1.00
O2       0.83820    0.72650    0.22650   1.00
O2       0.72650    0.77350    0.16180   1.00
O2       0.66180    0.77350    0.22650   1.00
O2       0.72650    0.83820    0.22650   1.00
O2       0.72650    0.66180    0.27350   1.00
O2       0.66180    0.72650    0.27350   1.00
O2       0.72650    0.72650    0.33820   1.00
O2       0.83820    0.77350    0.27350   1.00
O2       0.77350    0.83820    0.27350   1.00
O2       0.77350    0.77350    0.33820   1.00
C1       0.75000    0.75000    0.14480   1.00
C1       0.75000    0.64480    0.25000   1.00
C1       0.85520    0.75000    0.25000   1.00
C1       0.64480    0.75000    0.25000   1.00
C1       0.75000    0.85520    0.25000   1.00
C1       0.75000    0.75000    0.35520   1.00
O1       0.75000    0.25000    0.75000   1.00
Zn1      0.78280    0.21720    0.71720   1.00
Zn1      0.71720    0.28280    0.71720   1.00
Zn1      0.71720    0.21720    0.78280   1.00
Zn1      0.78280    0.28280    0.78280   1.00
O2       0.77350    0.22650    0.66180   1.00
O2       0.77350    0.16180    0.72650   1.00
O2       0.83820    0.22650    0.72650   1.00
O2       0.72650    0.27350    0.66180   1.00
O2       0.66180    0.27350    0.72650   1.00
O2       0.72650    0.33820    0.72650   1.00
O2       0.72650    0.16180    0.77350   1.00
O2       0.66180    0.22650    0.77350   1.00
O2       0.72650    0.22650    0.83820   1.00
O2       0.83820    0.27350    0.77350   1.00
O2       0.77350    0.33820    0.77350   1.00
O2       0.77350    0.27350    0.83820   1.00
C1       0.75000    0.25000    0.64480   1.00
C1       0.75000    0.14480    0.75000   1.00
C1       0.85520    0.25000    0.75000   1.00
C1       0.64480    0.25000    0.75000   1.00
C1       0.75000    0.35520    0.75000   1.00
C1       0.75000    0.25000    0.85520   1.00
O1       0.25000    0.75000    0.75000   1.00
Zn1      0.28280    0.71720    0.71720   1.00
Zn1      0.21720    0.78280    0.71720   1.00
Zn1      0.21720    0.71720    0.78280   1.00
Zn1      0.28280    0.78280    0.78280   1.00
O2       0.27350    0.72650    0.66180   1.00
O2       0.27350    0.66180    0.72650   1.00
O2       0.33820    0.72650    0.72650   1.00
O2       0.22650    0.77350    0.66180   1.00
O2       0.16180    0.77350    0.72650   1.00
O2       0.22650    0.83820    0.72650   1.00
O2       0.22650    0.66180    0.77350   1.00
O2       0.16180    0.72650    0.77350   1.00
O2       0.22650    0.72650    0.83820   1.00
O2       0.33820    0.77350    0.77350   1.00
O2       0.27350    0.83820    0.77350   1.00
O2       0.27350    0.77350    0.83820   1.00
C1       0.25000    0.75000    0.64480   1.00
C1       0.25000    0.64480    0.75000   1.00
C1       0.35520    0.75000    0.75000   1.00
C1       0.14480    0.75000    0.75000   1.00
C1       0.25000    0.85520    0.75000   1.00
C1       0.25000    0.75000    0.85520   1.00
C4       0.75075    0.74980    1.02067   1.00
C4       0.74925    0.75020    0.97933   1.00
C3       0.74520    0.71489    1.04244   1.00
C3       0.73661    0.71719    0.95756   1.00
C4       0.75766    0.78500    1.04150   1.00
C4       0.76086    0.78414    0.95850   1.00
C2       0.74982    0.74940    1.10352   1.00
C2       0.74985    0.74939    0.89648   1.00
C3       0.74441    0.71496    1.08310   1.00
C3       0.73732    0.71686    0.91690   1.00
C3       0.75691    0.78396    1.08306   1.00
C3       0.76099    0.78287    0.91694   1.00
H1       0.74229    0.68671    1.02888   1.00
H1       0.72504    0.69133    0.97112   1.00
C5       0.76569    0.82011    1.02065   1.00
C5       0.77146    0.81857    0.97935   1.00
H1       0.73980    0.68796    1.09886   1.00
H1       0.72782    0.69117    0.90114   1.00
H1       0.76236    0.80954    1.10053   1.00
H1       0.76906    0.80775    0.89947   1.00
C6       0.76654    0.85912    1.04234   1.00
C6       0.79022    0.85277    0.95766   1.00
H2       0.75493    0.88282    1.02358   1.00
H2       0.74620    0.85948    1.06737   1.00
C6       0.80778    0.86848    1.05724   1.00
H2       0.81212    0.86750    0.97642   1.00
H2       0.80802    0.84292    0.93263   1.00
C6       0.75919    0.88150    0.94276   1.00
H2       0.82905    0.86930    1.03274   1.00
C6       0.80825    0.90771    1.07832   1.00
H2       0.81774    0.84520    1.07760   1.00
C6       0.77839    0.91571    0.92168   1.00
H2       0.73892    0.86631    0.92240   1.00
H2       0.74117    0.89284    0.96726   1.00
H2       0.79921    0.93150    1.05822   1.00
H2       0.78820    0.90719    1.10380   1.00
H2       0.83818    0.91411    1.08898   1.00
H2       0.79811    0.93179    0.94178   1.00
H2       0.79549    0.90524    0.89620   1.00
H2       0.75566    0.93622    0.91102   1.00
C4       0.74980    1.02067    0.75075   1.00
C4       0.75020    0.97933    0.74925   1.00
C3       0.71489    1.04244    0.74520   1.00
C3       0.71719    0.95756    0.73661   1.00
C4       0.78500    1.04150    0.75766   1.00
C4       0.78414    0.95850    0.76086   1.00
C2       0.74940    1.10352    0.74982   1.00
C2       0.74939    0.89648    0.74985   1.00
C3       0.71496    1.08310    0.74441   1.00
C3       0.71686    0.91690    0.73732   1.00
C3       0.78396    1.08306    0.75691   1.00
C3       0.78287    0.91694    0.76099   1.00
H1       0.68671    1.02888    0.74229   1.00
H1       0.69133    0.97112    0.72504   1.00
C5       0.82011    1.02065    0.76569   1.00
C5       0.81857    0.97935    0.77146   1.00
H1       0.68796    1.09886    0.73980   1.00
H1       0.69117    0.90114    0.72782   1.00
H1       0.80954    1.10053    0.76236   1.00
H1       0.80775    0.89947    0.76906   1.00
C6       0.85912    1.04234    0.76654   1.00
C6       0.85277    0.95766    0.79022   1.00
H2       0.88282    1.02358    0.75493   1.00
H2       0.85948    1.06737    0.74620   1.00
C6       0.86848    1.05724    0.80778   1.00
H2       0.86750    0.97642    0.81212   1.00
H2       0.84292    0.93263    0.80802   1.00
C6       0.88150    0.94276    0.75919   1.00
H2       0.86930    1.03274    0.82905   1.00
C6       0.90771    1.07832    0.80825   1.00
H2       0.84520    1.07760    0.81774   1.00
C6       0.91571    0.92168    0.77839   1.00
H2       0.86631    0.92240    0.73892   1.00
H2       0.89284    0.96726    0.74117   1.00
H2       0.93150    1.05822    0.79921   1.00
H2       0.90719    1.10380    0.78820   1.00
H2       0.91411    1.08898    0.83818   1.00
H2       0.93179    0.94178    0.79811   1.00
H2       0.90524    0.89620    0.79549   1.00
H2       0.93622    0.91102    0.75566   1.00
C4       0.47933    0.75075    0.75020   1.00
C4       0.52067    0.74925    0.74980   1.00
C3       0.45756    0.74520    0.78511   1.00
C3       0.54244    0.73661    0.78281   1.00
C4       0.45850    0.75766    0.71500   1.00
C4       0.54150    0.76086    0.71586   1.00
C2       0.39648    0.74982    0.75060   1.00
C2       0.60352    0.74985    0.75061   1.00
C3       0.41690    0.74441    0.78504   1.00
C3       0.58310    0.73732    0.78314   1.00
C3       0.41694    0.75691    0.71604   1.00
C3       0.58306    0.76099    0.71713   1.00
H1       0.47112    0.74229    0.81329   1.00
H1       0.52888    0.72504    0.80867   1.00
C5       0.47935    0.76569    0.67989   1.00
C5       0.52065    0.77146    0.68143   1.00
H1       0.40114    0.73980    0.81204   1.00
H1       0.59886    0.72782    0.80883   1.00
H1       0.39947    0.76236    0.69046   1.00
H1       0.60053    0.76906    0.69225   1.00
C6       0.45766    0.76654    0.64088   1.00
C6       0.54234    0.79022    0.64723   1.00
H2       0.47642    0.75493    0.61718   1.00
H2       0.43263    0.74620    0.64052   1.00
C6       0.44276    0.80778    0.63152   1.00
H2       0.52358    0.81212    0.63250   1.00
H2       0.56737    0.80802    0.65708   1.00
C6       0.55724    0.75919    0.61850   1.00
H2       0.46726    0.82905    0.63070   1.00
C6       0.42168    0.80825    0.59229   1.00
H2       0.42240    0.81774    0.65480   1.00
C6       0.57832    0.77839    0.58429   1.00
H2       0.57760    0.73892    0.63369   1.00
H2       0.53274    0.74117    0.60716   1.00
H2       0.44178    0.79921    0.56850   1.00
H2       0.39620    0.78820    0.59281   1.00
H2       0.41102    0.83818    0.58589   1.00
H2       0.55822    0.79811    0.56821   1.00
H2       0.60380    0.79549    0.59476   1.00
H2       0.58898    0.75566    0.56378   1.00
C4       1.02067    0.75075    0.74980   1.00
C4       0.97933    0.74925    0.75020   1.00
C3       1.04244    0.74520    0.71489   1.00
C3       0.95756    0.73661    0.71719   1.00
C4       1.04150    0.75766    0.78500   1.00
C4       0.95850    0.76086    0.78414   1.00
C2       1.10352    0.74982    0.74940   1.00
C2       0.89648    0.74985    0.74939   1.00
C3       1.08310    0.74441    0.71496   1.00
C3       0.91690    0.73732    0.71686   1.00
C3       1.08306    0.75691    0.78396   1.00
C3       0.91694    0.76099    0.78287   1.00
H1       1.02888    0.74229    0.68671   1.00
H1       0.97112    0.72504    0.69133   1.00
C5       1.02065    0.76569    0.82011   1.00
C5       0.97935    0.77146    0.81857   1.00
H1       1.09886    0.73980    0.68796   1.00
H1       0.90114    0.72782    0.69117   1.00
H1       1.10053    0.76236    0.80954   1.00
H1       0.89947    0.76906    0.80775   1.00
C6       1.04234    0.76654    0.85912   1.00
C6       0.95766    0.79022    0.85277   1.00
H2       1.02358    0.75493    0.88282   1.00
H2       1.06737    0.74620    0.85948   1.00
C6       1.05724    0.80778    0.86848   1.00
H2       0.97642    0.81212    0.86750   1.00
H2       0.93263    0.80802    0.84292   1.00
C6       0.94276    0.75919    0.88150   1.00
H2       1.03274    0.82905    0.86930   1.00
C6       1.07832    0.80825    0.90771   1.00
H2       1.07760    0.81774    0.84520   1.00
C6       0.92168    0.77839    0.91571   1.00
H2       0.92240    0.73892    0.86631   1.00
H2       0.96726    0.74117    0.89284   1.00
H2       1.05822    0.79921    0.93150   1.00
H2       1.10380    0.78820    0.90719   1.00
H2       1.08898    0.83818    0.91411   1.00
H2       0.94178    0.79811    0.93179   1.00
H2       0.89620    0.79549    0.90524   1.00
H2       0.91102    0.75566    0.93622   1.00
C4       0.75020    0.47933    0.75075   1.00
C4       0.74980    0.52067    0.74925   1.00
C3       0.78511    0.45756    0.74520   1.00
C3       0.78281    0.54244    0.73661   1.00
C4       0.71500    0.45850    0.75766   1.00
C4       0.71586    0.54150    0.76086   1.00
C2       0.75060    0.39648    0.74982   1.00
C2       0.75061    0.60352    0.74985   1.00
C3       0.78504    0.41690    0.74441   1.00
C3       0.78314    0.58310    0.73732   1.00
C3       0.71604    0.41694    0.75691   1.00
C3       0.71713    0.58306    0.76099   1.00
H1       0.81329    0.47112    0.74229   1.00
H1       0.80867    0.52888    0.72504   1.00
C5       0.67989    0.47935    0.76569   1.00
C5       0.68143    0.52065    0.77146   1.00
H1       0.81204    0.40114    0.73980   1.00
H1       0.80883    0.59886    0.72782   1.00
H1       0.69046    0.39947    0.76236   1.00
H1       0.69225    0.60053    0.76906   1.00
C6       0.64088    0.45766    0.76654   1.00
C6       0.64723    0.54234    0.79022   1.00
H2       0.61718    0.47642    0.75493   1.00
H2       0.64052    0.43263    0.74620   1.00
C6       0.63152    0.44276    0.80778   1.00
H2       0.63250    0.52358    0.81212   1.00
H2       0.65708    0.56737    0.80802   1.00
C6       0.61850    0.55724    0.75919   1.00
H2       0.63070    0.46726    0.82905   1.00
C6       0.59229    0.42168    0.80825   1.00
H2       0.65480    0.42240    0.81774   1.00
C6       0.58429    0.57832    0.77839   1.00
H2       0.63369    0.57760    0.73892   1.00
H2       0.60716    0.53274    0.74117   1.00
H2       0.56850    0.44178    0.79921   1.00
H2       0.59281    0.39620    0.78820   1.00
H2       0.58589    0.41102    0.83818   1.00
H2       0.56821    0.55822    0.79811   1.00
H2       0.59476    0.60380    0.79549   1.00
H2       0.56378    0.58898    0.75566   1.00
C4       0.75075    0.75020    0.47933   1.00
C4       0.74925    0.74980    0.52067   1.00
C3       0.74520    0.78511    0.45756   1.00
C3       0.73661    0.78281    0.54244   1.00
C4       0.75766    0.71500    0.45850   1.00
C4       0.76086    0.71586    0.54150   1.00
C2       0.74982    0.75060    0.39648   1.00
C2       0.74985    0.75061    0.60352   1.00
C3       0.74441    0.78504    0.41690   1.00
C3       0.73732    0.78314    0.58310   1.00
C3       0.75691    0.71604    0.41694   1.00
C3       0.76099    0.71713    0.58306   1.00
H1       0.74229    0.81329    0.47112   1.00
H1       0.72504    0.80867    0.52888   1.00
C5       0.76569    0.67989    0.47935   1.00
C5       0.77146    0.68143    0.52065   1.00
H1       0.73980    0.81204    0.40114   1.00
H1       0.72782    0.80883    0.59886   1.00
H1       0.76236    0.69046    0.39947   1.00
H1       0.76906    0.69225    0.60053   1.00
C6       0.76654    0.64088    0.45766   1.00
C6       0.79022    0.64723    0.54234   1.00
H2       0.75493    0.61718    0.47642   1.00
H2       0.74620    0.64052    0.43263   1.00
C6       0.80778    0.63152    0.44276   1.00
H2       0.81212    0.63250    0.52358   1.00
H2       0.80802    0.65708    0.56737   1.00
C6       0.75919    0.61850    0.55724   1.00
H2       0.82905    0.63070    0.46726   1.00
C6       0.80825    0.59229    0.42168   1.00
H2       0.81774    0.65480    0.42240   1.00
C6       0.77839    0.58429    0.57832   1.00
H2       0.73892    0.63369    0.57760   1.00
H2       0.74117    0.60716    0.53274   1.00
H2       0.79921    0.56850    0.44178   1.00
H2       0.78820    0.59281    0.39620   1.00
H2       0.83818    0.58589    0.41102   1.00
H2       0.79811    0.56821    0.55822   1.00
H2       0.79549    0.59476    0.60380   1.00
H2       0.75566    0.56378    0.58898   1.00
C4       0.25075    0.24980    1.02067   1.00
C4       0.24925    0.25020    0.97933   1.00
C3       0.24520    0.21489    1.04244   1.00
C3       0.23661    0.21719    0.95756   1.00
C4       0.25766    0.28500    1.04150   1.00
C4       0.26086    0.28414    0.95850   1.00
C2       0.24982    0.24940    1.10352   1.00
C2       0.24985    0.24939    0.89648   1.00
C3       0.24441    0.21496    1.08310   1.00
C3       0.23732    0.21686    0.91690   1.00
C3       0.25691    0.28396    1.08306   1.00
C3       0.26099    0.28287    0.91694   1.00
H1       0.24229    0.18671    1.02888   1.00
H1       0.22504    0.19133    0.97112   1.00
C5       0.26569    0.32011    1.02065   1.00
C5       0.27146    0.31857    0.97935   1.00
H1       0.23980    0.18796    1.09886   1.00
H1       0.22782    0.19117    0.90114   1.00
H1       0.26236    0.30954    1.10053   1.00
H1       0.26906    0.30775    0.89947   1.00
C6       0.26654    0.35912    1.04234   1.00
C6       0.29022    0.35277    0.95766   1.00
H2       0.25493    0.38282    1.02358   1.00
H2       0.24620    0.35948    1.06737   1.00
C6       0.30778    0.36848    1.05724   1.00
H2       0.31212    0.36750    0.97642   1.00
H2       0.30802    0.34292    0.93263   1.00
C6       0.25919    0.38150    0.94276   1.00
H2       0.32905    0.36930    1.03274   1.00
C6       0.30825    0.40771    1.07832   1.00
H2       0.31774    0.34520    1.07760   1.00
C6       0.27839    0.41571    0.92168   1.00
H2       0.23892    0.36631    0.92240   1.00
H2       0.24117    0.39284    0.96726   1.00
H2       0.29921    0.43150    1.05822   1.00
H2       0.28820    0.40719    1.10380   1.00
H2       0.33818    0.41411    1.08898   1.00
H2       0.29811    0.43179    0.94178   1.00
H2       0.29549    0.40524    0.89620   1.00
H2       0.25566    0.43622    0.91102   1.00
C4       0.24980    0.52067    0.75075   1.00
C4       0.25020    0.47933    0.74925   1.00
C3       0.21489    0.54244    0.74520   1.00
C3       0.21719    0.45756    0.73661   1.00
C4       0.28500    0.54150    0.75766   1.00
C4       0.28414    0.45850    0.76086   1.00
C2       0.24940    0.60352    0.74982   1.00
C2       0.24939    0.39648    0.74985   1.00
C3       0.21496    0.58310    0.74441   1.00
C3       0.21686    0.41690    0.73732   1.00
C3       0.28396    0.58306    0.75691   1.00
C3       0.28287    0.41694    0.76099   1.00
H1       0.18671    0.52888    0.74229   1.00
H1       0.19133    0.47112    0.72504   1.00
C5       0.32011    0.52065    0.76569   1.00
C5       0.31857    0.47935    0.77146   1.00
H1       0.18796    0.59886    0.73980   1.00
H1       0.19117    0.40114    0.72782   1.00
H1       0.30954    0.60053    0.76236   1.00
H1       0.30775    0.39947    0.76906   1.00
C6       0.35912    0.54234    0.76654   1.00
C6       0.35277    0.45766    0.79022   1.00
H2       0.38282    0.52358    0.75493   1.00
H2       0.35948    0.56737    0.74620   1.00
C6       0.36848    0.55724    0.80778   1.00
H2       0.36750    0.47642    0.81212   1.00
H2       0.34292    0.43263    0.80802   1.00
C6       0.38150    0.44276    0.75919   1.00
H2       0.36930    0.53274    0.82905   1.00
C6       0.40771    0.57832    0.80825   1.00
H2       0.34520    0.57760    0.81774   1.00
C6       0.41571    0.42168    0.77839   1.00
H2       0.36631    0.42240    0.73892   1.00
H2       0.39284    0.46726    0.74117   1.00
H2       0.43150    0.55822    0.79921   1.00
H2       0.40719    0.60380    0.78820   1.00
H2       0.41411    0.58898    0.83818   1.00
H2       0.43179    0.44178    0.79811   1.00
H2       0.40524    0.39620    0.79549   1.00
H2       0.43622    0.41102    0.75566   1.00
C4       -0.02067   0.25075    0.75020   1.00
C4       0.02067    0.24925    0.74980   1.00
C3       -0.04244   0.24520    0.78511   1.00
C3       0.04244    0.23661    0.78281   1.00
C4       -0.04150   0.25766    0.71500   1.00
C4       0.04150    0.26086    0.71586   1.00
C2       -0.10352   0.24982    0.75060   1.00
C2       0.10352    0.24985    0.75061   1.00
C3       -0.08310   0.24441    0.78504   1.00
C3       0.08310    0.23732    0.78314   1.00
C3       -0.08306   0.25691    0.71604   1.00
C3       0.08306    0.26099    0.71713   1.00
H1       -0.02888   0.24229    0.81329   1.00
H1       0.02888    0.22504    0.80867   1.00
C5       -0.02065   0.26569    0.67989   1.00
C5       0.02065    0.27146    0.68143   1.00
H1       -0.09886   0.23980    0.81204   1.00
H1       0.09886    0.22782    0.80883   1.00
H1       -0.10053   0.26236    0.69046   1.00
H1       0.10053    0.26906    0.69225   1.00
C6       -0.04234   0.26654    0.64088   1.00
C6       0.04234    0.29022    0.64723   1.00
H2       -0.02358   0.25493    0.61718   1.00
H2       -0.06737   0.24620    0.64052   1.00
C6       -0.05724   0.30778    0.63152   1.00
H2       0.02358    0.31212    0.63250   1.00
H2       0.06737    0.30802    0.65708   1.00
C6       0.05724    0.25919    0.61850   1.00
H2       -0.03274   0.32905    0.63070   1.00
C6       -0.07832   0.30825    0.59229   1.00
H2       -0.07760   0.31774    0.65480   1.00
C6       0.07832    0.27839    0.58429   1.00
H2       0.07760    0.23892    0.63369   1.00
H2       0.03274    0.24117    0.60716   1.00
H2       -0.05822   0.29921    0.56850   1.00
H2       -0.10380   0.28820    0.59281   1.00
H2       -0.08898   0.33818    0.58589   1.00
H2       0.05822    0.29811    0.56821   1.00
H2       0.10380    0.29549    0.59476   1.00
H2       0.08898    0.25566    0.56378   1.00
C4       0.52067    0.25075    0.74980   1.00
C4       0.47933    0.24925    0.75020   1.00
C3       0.54244    0.24520    0.71489   1.00
C3       0.45756    0.23661    0.71719   1.00
C4       0.54150    0.25766    0.78500   1.00
C4       0.45850    0.26086    0.78414   1.00
C2       0.60352    0.24982    0.74940   1.00
C2       0.39648    0.24985    0.74939   1.00
C3       0.58310    0.24441    0.71496   1.00
C3       0.41690    0.23732    0.71686   1.00
C3       0.58306    0.25691    0.78396   1.00
C3       0.41694    0.26099    0.78287   1.00
H1       0.52888    0.24229    0.68671   1.00
H1       0.47112    0.22504    0.69133   1.00
C5       0.52065    0.26569    0.82011   1.00
C5       0.47935    0.27146    0.81857   1.00
H1       0.59886    0.23980    0.68796   1.00
H1       0.40114    0.22782    0.69117   1.00
H1       0.60053    0.26236    0.80954   1.00
H1       0.39947    0.26906    0.80775   1.00
C6       0.54234    0.26654    0.85912   1.00
C6       0.45766    0.29022    0.85277   1.00
H2       0.52358    0.25493    0.88282   1.00
H2       0.56737    0.24620    0.85948   1.00
C6       0.55724    0.30778    0.86848   1.00
H2       0.47642    0.31212    0.86750   1.00
H2       0.43263    0.30802    0.84292   1.00
C6       0.44276    0.25919    0.88150   1.00
H2       0.53274    0.32905    0.86930   1.00
C6       0.57832    0.30825    0.90771   1.00
H2       0.57760    0.31774    0.84520   1.00
C6       0.42168    0.27839    0.91571   1.00
H2       0.42240    0.23892    0.86631   1.00
H2       0.46726    0.24117    0.89284   1.00
H2       0.55822    0.29921    0.93150   1.00
H2       0.60380    0.28820    0.90719   1.00
H2       0.58898    0.33818    0.91411   1.00
H2       0.44178    0.29811    0.93179   1.00
H2       0.39620    0.29549    0.90524   1.00
H2       0.41102    0.25566    0.93622   1.00
C4       0.25020    -0.02067   0.75075   1.00
C4       0.24980    0.02067    0.74925   1.00
C3       0.28511    -0.04244   0.74520   1.00
C3       0.28281    0.04244    0.73661   1.00
C4       0.21500    -0.04150   0.75766   1.00
C4       0.21586    0.04150    0.76086   1.00
C2       0.25060    -0.10352   0.74982   1.00
C2       0.25061    0.10352    0.74985   1.00
C3       0.28504    -0.08310   0.74441   1.00
C3       0.28314    0.08310    0.73732   1.00
C3       0.21604    -0.08306   0.75691   1.00
C3       0.21713    0.08306    0.76099   1.00
H1       0.31329    -0.02888   0.74229   1.00
H1       0.30867    0.02888    0.72504   1.00
C5       0.17989    -0.02065   0.76569   1.00
C5       0.18143    0.02065    0.77146   1.00
H1       0.31204    -0.09886   0.73980   1.00
H1       0.30883    0.09886    0.72782   1.00
H1       0.19046    -0.10053   0.76236   1.00
H1       0.19225    0.10053    0.76906   1.00
C6       0.14088    -0.04234   0.76654   1.00
C6       0.14723    0.04234    0.79022   1.00
H2       0.11718    -0.02358   0.75493   1.00
H2       0.14052    -0.06737   0.74620   1.00
C6       0.13152    -0.05724   0.80778   1.00
H2       0.13250    0.02358    0.81212   1.00
H2       0.15708    0.06737    0.80802   1.00
C6       0.11850    0.05724    0.75919   1.00
H2       0.13070    -0.03274   0.82905   1.00
C6       0.09229    -0.07832   0.80825   1.00
H2       0.15480    -0.07760   0.81774   1.00
C6       0.08429    0.07832    0.77839   1.00
H2       0.13369    0.07760    0.73892   1.00
H2       0.10716    0.03274    0.74117   1.00
H2       0.06850    -0.05822   0.79921   1.00
H2       0.09281    -0.10380   0.78820   1.00
H2       0.08589    -0.08898   0.83818   1.00
H2       0.06821    0.05822    0.79811   1.00
H2       0.09476    0.10380    0.79549   1.00
H2       0.06378    0.08898    0.75566   1.00
C4       0.25075    0.25020    0.47933   1.00
C4       0.24925    0.24980    0.52067   1.00
C3       0.24520    0.28511    0.45756   1.00
C3       0.23661    0.28281    0.54244   1.00
C4       0.25766    0.21500    0.45850   1.00
C4       0.26086    0.21586    0.54150   1.00
C2       0.24982    0.25060    0.39648   1.00
C2       0.24985    0.25061    0.60352   1.00
C3       0.24441    0.28504    0.41690   1.00
C3       0.23732    0.28314    0.58310   1.00
C3       0.25691    0.21604    0.41694   1.00
C3       0.26099    0.21713    0.58306   1.00
H1       0.24229    0.31329    0.47112   1.00
H1       0.22504    0.30867    0.52888   1.00
C5       0.26569    0.17989    0.47935   1.00
C5       0.27146    0.18143    0.52065   1.00
H1       0.23980    0.31204    0.40114   1.00
H1       0.22782    0.30883    0.59886   1.00
H1       0.26236    0.19046    0.39947   1.00
H1       0.26906    0.19225    0.60053   1.00
C6       0.26654    0.14088    0.45766   1.00
C6       0.29022    0.14723    0.54234   1.00
H2       0.25493    0.11718    0.47642   1.00
H2       0.24620    0.14052    0.43263   1.00
C6       0.30778    0.13152    0.44276   1.00
H2       0.31212    0.13250    0.52358   1.00
H2       0.30802    0.15708    0.56737   1.00
C6       0.25919    0.11850    0.55724   1.00
H2       0.32905    0.13070    0.46726   1.00
C6       0.30825    0.09229    0.42168   1.00
H2       0.31774    0.15480    0.42240   1.00
C6       0.27839    0.08429    0.57832   1.00
H2       0.23892    0.13369    0.57760   1.00
H2       0.24117    0.10716    0.53274   1.00
H2       0.29921    0.06850    0.44178   1.00
H2       0.28820    0.09281    0.39620   1.00
H2       0.33818    0.08589    0.41102   1.00
H2       0.29811    0.06821    0.55822   1.00
H2       0.29549    0.09476    0.60380   1.00
H2       0.25566    0.06378    0.58898   1.00
C4       0.25075    0.74980    0.52067   1.00
C4       0.24925    0.75020    0.47933   1.00
C3       0.24520    0.71489    0.54244   1.00
C3       0.23661    0.71719    0.45756   1.00
C4       0.25766    0.78500    0.54150   1.00
C4       0.26086    0.78414    0.45850   1.00
C2       0.24982    0.74940    0.60352   1.00
C2       0.24985    0.74939    0.39648   1.00
C3       0.24441    0.71496    0.58310   1.00
C3       0.23732    0.71686    0.41690   1.00
C3       0.25691    0.78396    0.58306   1.00
C3       0.26099    0.78287    0.41694   1.00
H1       0.24229    0.68671    0.52888   1.00
H1       0.22504    0.69133    0.47112   1.00
C5       0.26569    0.82011    0.52065   1.00
C5       0.27146    0.81857    0.47935   1.00
H1       0.23980    0.68796    0.59886   1.00
H1       0.22782    0.69117    0.40114   1.00
H1       0.26236    0.80954    0.60053   1.00
H1       0.26906    0.80775    0.39947   1.00
C6       0.26654    0.85912    0.54234   1.00
C6       0.29022    0.85277    0.45766   1.00
H2       0.25493    0.88282    0.52358   1.00
H2       0.24620    0.85948    0.56737   1.00
C6       0.30778    0.86848    0.55724   1.00
H2       0.31212    0.86750    0.47642   1.00
H2       0.30802    0.84292    0.43263   1.00
C6       0.25919    0.88150    0.44276   1.00
H2       0.32905    0.86930    0.53274   1.00
C6       0.30825    0.90771    0.57832   1.00
H2       0.31774    0.84520    0.57760   1.00
C6       0.27839    0.91571    0.42168   1.00
H2       0.23892    0.86631    0.42240   1.00
H2       0.24117    0.89284    0.46726   1.00
H2       0.29921    0.93150    0.55822   1.00
H2       0.28820    0.90719    0.60380   1.00
H2       0.33818    0.91411    0.58898   1.00
H2       0.29811    0.93179    0.44178   1.00
H2       0.29549    0.90524    0.39620   1.00
H2       0.25566    0.93622    0.41102   1.00
C4       0.24980    1.02067    0.25075   1.00
C4       0.25020    0.97933    0.24925   1.00
C3       0.21489    1.04244    0.24520   1.00
C3       0.21719    0.95756    0.23661   1.00
C4       0.28500    1.04150    0.25766   1.00
C4       0.28414    0.95850    0.26086   1.00
C2       0.24940    1.10352    0.24982   1.00
C2       0.24939    0.89648    0.24985   1.00
C3       0.21496    1.08310    0.24441   1.00
C3       0.21686    0.91690    0.23732   1.00
C3       0.28396    1.08306    0.25691   1.00
C3       0.28287    0.91694    0.26099   1.00
H1       0.18671    1.02888    0.24229   1.00
H1       0.19133    0.97112    0.22504   1.00
C5       0.32011    1.02065    0.26569   1.00
C5       0.31857    0.97935    0.27146   1.00
H1       0.18796    1.09886    0.23980   1.00
H1       0.19117    0.90114    0.22782   1.00
H1       0.30954    1.10053    0.26236   1.00
H1       0.30775    0.89947    0.26906   1.00
C6       0.35912    1.04234    0.26654   1.00
C6       0.35277    0.95766    0.29022   1.00
H2       0.38282    1.02358    0.25493   1.00
H2       0.35948    1.06737    0.24620   1.00
C6       0.36848    1.05724    0.30778   1.00
H2       0.36750    0.97642    0.31212   1.00
H2       0.34292    0.93263    0.30802   1.00
C6       0.38150    0.94276    0.25919   1.00
H2       0.36930    1.03274    0.32905   1.00
C6       0.40771    1.07832    0.30825   1.00
H2       0.34520    1.07760    0.31774   1.00
C6       0.41571    0.92168    0.27839   1.00
H2       0.36631    0.92240    0.23892   1.00
H2       0.39284    0.96726    0.24117   1.00
H2       0.43150    1.05822    0.29921   1.00
H2       0.40719    1.10380    0.28820   1.00
H2       0.41411    1.08898    0.33818   1.00
H2       0.43179    0.94178    0.29811   1.00
H2       0.40524    0.89620    0.29549   1.00
H2       0.43622    0.91102    0.25566   1.00
C4       -0.02067   0.75075    0.25020   1.00
C4       0.02067    0.74925    0.24980   1.00
C3       -0.04244   0.74520    0.28511   1.00
C3       0.04244    0.73661    0.28281   1.00
C4       -0.04150   0.75766    0.21500   1.00
C4       0.04150    0.76086    0.21586   1.00
C2       -0.10352   0.74982    0.25060   1.00
C2       0.10352    0.74985    0.25061   1.00
C3       -0.08310   0.74441    0.28504   1.00
C3       0.08310    0.73732    0.28314   1.00
C3       -0.08306   0.75691    0.21604   1.00
C3       0.08306    0.76099    0.21713   1.00
H1       -0.02888   0.74229    0.31329   1.00
H1       0.02888    0.72504    0.30867   1.00
C5       -0.02065   0.76569    0.17989   1.00
C5       0.02065    0.77146    0.18143   1.00
H1       -0.09886   0.73980    0.31204   1.00
H1       0.09886    0.72782    0.30883   1.00
H1       -0.10053   0.76236    0.19046   1.00
H1       0.10053    0.76906    0.19225   1.00
C6       -0.04234   0.76654    0.14088   1.00
C6       0.04234    0.79022    0.14723   1.00
H2       -0.02358   0.75493    0.11718   1.00
H2       -0.06737   0.74620    0.14052   1.00
C6       -0.05724   0.80778    0.13152   1.00
H2       0.02358    0.81212    0.13250   1.00
H2       0.06737    0.80802    0.15708   1.00
C6       0.05724    0.75919    0.11850   1.00
H2       -0.03274   0.82905    0.13070   1.00
C6       -0.07832   0.80825    0.09229   1.00
H2       -0.07760   0.81774    0.15480   1.00
C6       0.07832    0.77839    0.08429   1.00
H2       0.07760    0.73892    0.13369   1.00
H2       0.03274    0.74117    0.10716   1.00
H2       -0.05822   0.79921    0.06850   1.00
H2       -0.10380   0.78820    0.09281   1.00
H2       -0.08898   0.83818    0.08589   1.00
H2       0.05822    0.79811    0.06821   1.00
H2       0.10380    0.79549    0.09476   1.00
H2       0.08898    0.75566    0.06378   1.00
C4       0.52067    0.75075    0.24980   1.00
C4       0.47933    0.74925    0.25020   1.00
C3       0.54244    0.74520    0.21489   1.00
C3       0.45756    0.73661    0.21719   1.00
C4       0.54150    0.75766    0.28500   1.00
C4       0.45850    0.76086    0.28414   1.00
C2       0.60352    0.74982    0.24940   1.00
C2       0.39648    0.74985    0.24939   1.00
C3       0.58310    0.74441    0.21496   1.00
C3       0.41690    0.73732    0.21686   1.00
C3       0.58306    0.75691    0.28396   1.00
C3       0.41694    0.76099    0.28287   1.00
H1       0.52888    0.74229    0.18671   1.00
H1       0.47112    0.72504    0.19133   1.00
C5       0.52065    0.76569    0.32011   1.00
C5       0.47935    0.77146    0.31857   1.00
H1       0.59886    0.73980    0.18796   1.00
H1       0.40114    0.72782    0.19117   1.00
H1       0.60053    0.76236    0.30954   1.00
H1       0.39947    0.76906    0.30775   1.00
C6       0.54234    0.76654    0.35912   1.00
C6       0.45766    0.79022    0.35277   1.00
H2       0.52358    0.75493    0.38282   1.00
H2       0.56737    0.74620    0.35948   1.00
C6       0.55724    0.80778    0.36848   1.00
H2       0.47642    0.81212    0.36750   1.00
H2       0.43263    0.80802    0.34292   1.00
C6       0.44276    0.75919    0.38150   1.00
H2       0.53274    0.82905    0.36930   1.00
C6       0.57832    0.80825    0.40771   1.00
H2       0.57760    0.81774    0.34520   1.00
C6       0.42168    0.77839    0.41571   1.00
H2       0.42240    0.73892    0.36631   1.00
H2       0.46726    0.74117    0.39284   1.00
H2       0.55822    0.79921    0.43150   1.00
H2       0.60380    0.78820    0.40719   1.00
H2       0.58898    0.83818    0.41411   1.00
H2       0.44178    0.79811    0.43179   1.00
H2       0.39620    0.79549    0.40524   1.00
H2       0.41102    0.75566    0.43622   1.00
C4       0.25020    0.47933    0.25075   1.00
C4       0.24980    0.52067    0.24925   1.00
C3       0.28511    0.45756    0.24520   1.00
C3       0.28281    0.54244    0.23661   1.00
C4       0.21500    0.45850    0.25766   1.00
C4       0.21586    0.54150    0.26086   1.00
C2       0.25060    0.39648    0.24982   1.00
C2       0.25061    0.60352    0.24985   1.00
C3       0.28504    0.41690    0.24441   1.00
C3       0.28314    0.58310    0.23732   1.00
C3       0.21604    0.41694    0.25691   1.00
C3       0.21713    0.58306    0.26099   1.00
H1       0.31329    0.47112    0.24229   1.00
H1       0.30867    0.52888    0.22504   1.00
C5       0.17989    0.47935    0.26569   1.00
C5       0.18143    0.52065    0.27146   1.00
H1       0.31204    0.40114    0.23980   1.00
H1       0.30883    0.59886    0.22782   1.00
H1       0.19046    0.39947    0.26236   1.00
H1       0.19225    0.60053    0.26906   1.00
C6       0.14088    0.45766    0.26654   1.00
C6       0.14723    0.54234    0.29022   1.00
H2       0.11718    0.47642    0.25493   1.00
H2       0.14052    0.43263    0.24620   1.00
C6       0.13152    0.44276    0.30778   1.00
H2       0.13250    0.52358    0.31212   1.00
H2       0.15708    0.56737    0.30802   1.00
C6       0.11850    0.55724    0.25919   1.00
H2       0.13070    0.46726    0.32905   1.00
C6       0.09229    0.42168    0.30825   1.00
H2       0.15480    0.42240    0.31774   1.00
C6       0.08429    0.57832    0.27839   1.00
H2       0.13369    0.57760    0.23892   1.00
H2       0.10716    0.53274    0.24117   1.00
H2       0.06850    0.44178    0.29921   1.00
H2       0.09281    0.39620    0.28820   1.00
H2       0.08589    0.41102    0.33818   1.00
H2       0.06821    0.55822    0.29811   1.00
H2       0.09476    0.60380    0.29549   1.00
H2       0.06378    0.58898    0.25566   1.00
C4       0.25075    0.75020    -0.02067   1.00
C4       0.24925    0.74980    0.02067   1.00
C3       0.24520    0.78511    -0.04244   1.00
C3       0.23661    0.78281    0.04244   1.00
C4       0.25766    0.71500    -0.04150   1.00
C4       0.26086    0.71586    0.04150   1.00
C2       0.24982    0.75060    -0.10352   1.00
C2       0.24985    0.75061    0.10352   1.00
C3       0.24441    0.78504    -0.08310   1.00
C3       0.23732    0.78314    0.08310   1.00
C3       0.25691    0.71604    -0.08306   1.00
C3       0.26099    0.71713    0.08306   1.00
H1       0.24229    0.81329    -0.02888   1.00
H1       0.22504    0.80867    0.02888   1.00
C5       0.26569    0.67989    -0.02065   1.00
C5       0.27146    0.68143    0.02065   1.00
H1       0.23980    0.81204    -0.09886   1.00
H1       0.22782    0.80883    0.09886   1.00
H1       0.26236    0.69046    -0.10053   1.00
H1       0.26906    0.69225    0.10053   1.00
C6       0.26654    0.64088    -0.04234   1.00
C6       0.29022    0.64723    0.04234   1.00
H2       0.25493    0.61718    -0.02358   1.00
H2       0.24620    0.64052    -0.06737   1.00
C6       0.30778    0.63152    -0.05724   1.00
H2       0.31212    0.63250    0.02358   1.00
H2       0.30802    0.65708    0.06737   1.00
C6       0.25919    0.61850    0.05724   1.00
H2       0.32905    0.63070    -0.03274   1.00
C6       0.30825    0.59229    -0.07832   1.00
H2       0.31774    0.65480    -0.07760   1.00
C6       0.27839    0.58429    0.07832   1.00
H2       0.23892    0.63369    0.07760   1.00
H2       0.24117    0.60716    0.03274   1.00
H2       0.29921    0.56850    -0.05822   1.00
H2       0.28820    0.59281    -0.10380   1.00
H2       0.33818    0.58589    -0.08898   1.00
H2       0.29811    0.56821    0.05822   1.00
H2       0.29549    0.59476    0.10380   1.00
H2       0.25566    0.56378    0.08898   1.00
C4       0.75075    0.24980    0.52067   1.00
C4       0.74925    0.25020    0.47933   1.00
C3       0.74520    0.21489    0.54244   1.00
C3       0.73661    0.21719    0.45756   1.00
C4       0.75766    0.28500    0.54150   1.00
C4       0.76086    0.28414    0.45850   1.00
C2       0.74982    0.24940    0.60352   1.00
C2       0.74985    0.24939    0.39648   1.00
C3       0.74441    0.21496    0.58310   1.00
C3       0.73732    0.21686    0.41690   1.00
C3       0.75691    0.28396    0.58306   1.00
C3       0.76099    0.28287    0.41694   1.00
H1       0.74229    0.18671    0.52888   1.00
H1       0.72504    0.19133    0.47112   1.00
C5       0.76569    0.32011    0.52065   1.00
C5       0.77146    0.31857    0.47935   1.00
H1       0.73980    0.18796    0.59886   1.00
H1       0.72782    0.19117    0.40114   1.00
H1       0.76236    0.30954    0.60053   1.00
H1       0.76906    0.30775    0.39947   1.00
C6       0.76654    0.35912    0.54234   1.00
C6       0.79022    0.35277    0.45766   1.00
H2       0.75493    0.38282    0.52358   1.00
H2       0.74620    0.35948    0.56737   1.00
C6       0.80778    0.36848    0.55724   1.00
H2       0.81212    0.36750    0.47642   1.00
H2       0.80802    0.34292    0.43263   1.00
C6       0.75919    0.38150    0.44276   1.00
H2       0.82905    0.36930    0.53274   1.00
C6       0.80825    0.40771    0.57832   1.00
H2       0.81774    0.34520    0.57760   1.00
C6       0.77839    0.41571    0.42168   1.00
H2       0.73892    0.36631    0.42240   1.00
H2       0.74117    0.39284    0.46726   1.00
H2       0.79921    0.43150    0.55822   1.00
H2       0.78820    0.40719    0.60380   1.00
H2       0.83818    0.41411    0.58898   1.00
H2       0.79811    0.43179    0.44178   1.00
H2       0.79549    0.40524    0.39620   1.00
H2       0.75566    0.43622    0.41102   1.00
C4       0.74980    0.52067    0.25075   1.00
C4       0.75020    0.47933    0.24925   1.00
C3       0.71489    0.54244    0.24520   1.00
C3       0.71719    0.45756    0.23661   1.00
C4       0.78500    0.54150    0.25766   1.00
C4       0.78414    0.45850    0.26086   1.00
C2       0.74940    0.60352    0.24982   1.00
C2       0.74939    0.39648    0.24985   1.00
C3       0.71496    0.58310    0.24441   1.00
C3       0.71686    0.41690    0.23732   1.00
C3       0.78396    0.58306    0.25691   1.00
C3       0.78287    0.41694    0.26099   1.00
H1       0.68671    0.52888    0.24229   1.00
H1       0.69133    0.47112    0.22504   1.00
C5       0.82011    0.52065    0.26569   1.00
C5       0.81857    0.47935    0.27146   1.00
H1       0.68796    0.59886    0.23980   1.00
H1       0.69117    0.40114    0.22782   1.00
H1       0.80954    0.60053    0.26236   1.00
H1       0.80775    0.39947    0.26906   1.00
C6       0.85912    0.54234    0.26654   1.00
C6       0.85277    0.45766    0.29022   1.00
H2       0.88282    0.52358    0.25493   1.00
H2       0.85948    0.56737    0.24620   1.00
C6       0.86848    0.55724    0.30778   1.00
H2       0.86750    0.47642    0.31212   1.00
H2       0.84292    0.43263    0.30802   1.00
C6       0.88150    0.44276    0.25919   1.00
H2       0.86930    0.53274    0.32905   1.00
C6       0.90771    0.57832    0.30825   1.00
H2       0.84520    0.57760    0.31774   1.00
C6       0.91571    0.42168    0.27839   1.00
H2       0.86631    0.42240    0.23892   1.00
H2       0.89284    0.46726    0.24117   1.00
H2       0.93150    0.55822    0.29921   1.00
H2       0.90719    0.60380    0.28820   1.00
H2       0.91411    0.58898    0.33818   1.00
H2       0.93179    0.44178    0.29811   1.00
H2       0.90524    0.39620    0.29549   1.00
H2       0.93622    0.41102    0.25566   1.00
C4       0.47933    0.25075    0.25020   1.00
C4       0.52067    0.24925    0.24980   1.00
C3       0.45756    0.24520    0.28511   1.00
C3       0.54244    0.23661    0.28281   1.00
C4       0.45850    0.25766    0.21500   1.00
C4       0.54150    0.26086    0.21586   1.00
C2       0.39648    0.24982    0.25060   1.00
C2       0.60352    0.24985    0.25061   1.00
C3       0.41690    0.24441    0.28504   1.00
C3       0.58310    0.23732    0.28314   1.00
C3       0.41694    0.25691    0.21604   1.00
C3       0.58306    0.26099    0.21713   1.00
H1       0.47112    0.24229    0.31329   1.00
H1       0.52888    0.22504    0.30867   1.00
C5       0.47935    0.26569    0.17989   1.00
C5       0.52065    0.27146    0.18143   1.00
H1       0.40114    0.23980    0.31204   1.00
H1       0.59886    0.22782    0.30883   1.00
H1       0.39947    0.26236    0.19046   1.00
H1       0.60053    0.26906    0.19225   1.00
C6       0.45766    0.26654    0.14088   1.00
C6       0.54234    0.29022    0.14723   1.00
H2       0.47642    0.25493    0.11718   1.00
H2       0.43263    0.24620    0.14052   1.00
C6       0.44276    0.30778    0.13152   1.00
H2       0.52358    0.31212    0.13250   1.00
H2       0.56737    0.30802    0.15708   1.00
C6       0.55724    0.25919    0.11850   1.00
H2       0.46726    0.32905    0.13070   1.00
C6       0.42168    0.30825    0.09229   1.00
H2       0.42240    0.31774    0.15480   1.00
C6       0.57832    0.27839    0.08429   1.00
H2       0.57760    0.23892    0.13369   1.00
H2       0.53274    0.24117    0.10716   1.00
H2       0.44178    0.29921    0.06850   1.00
H2       0.39620    0.28820    0.09281   1.00
H2       0.41102    0.33818    0.08589   1.00
H2       0.55822    0.29811    0.06821   1.00
H2       0.60380    0.29549    0.09476   1.00
H2       0.58898    0.25566    0.06378   1.00
C4       1.02067    0.25075    0.24980   1.00
C4       0.97933    0.24925    0.25020   1.00
C3       1.04244    0.24520    0.21489   1.00
C3       0.95756    0.23661    0.21719   1.00
C4       1.04150    0.25766    0.28500   1.00
C4       0.95850    0.26086    0.28414   1.00
C2       1.10352    0.24982    0.24940   1.00
C2       0.89648    0.24985    0.24939   1.00
C3       1.08310    0.24441    0.21496   1.00
C3       0.91690    0.23732    0.21686   1.00
C3       1.08306    0.25691    0.28396   1.00
C3       0.91694    0.26099    0.28287   1.00
H1       1.02888    0.24229    0.18671   1.00
H1       0.97112    0.22504    0.19133   1.00
C5       1.02065    0.26569    0.32011   1.00
C5       0.97935    0.27146    0.31857   1.00
H1       1.09886    0.23980    0.18796   1.00
H1       0.90114    0.22782    0.19117   1.00
H1       1.10053    0.26236    0.30954   1.00
H1       0.89947    0.26906    0.30775   1.00
C6       1.04234    0.26654    0.35912   1.00
C6       0.95766    0.29022    0.35277   1.00
H2       1.02358    0.25493    0.38282   1.00
H2       1.06737    0.24620    0.35948   1.00
C6       1.05724    0.30778    0.36848   1.00
H2       0.97642    0.31212    0.36750   1.00
H2       0.93263    0.30802    0.34292   1.00
C6       0.94276    0.25919    0.38150   1.00
H2       1.03274    0.32905    0.36930   1.00
C6       1.07832    0.30825    0.40771   1.00
H2       1.07760    0.31774    0.34520   1.00
C6       0.92168    0.27839    0.41571   1.00
H2       0.92240    0.23892    0.36631   1.00
H2       0.96726    0.24117    0.39284   1.00
H2       1.05822    0.29921    0.43150   1.00
H2       1.10380    0.28820    0.40719   1.00
H2       1.08898    0.33818    0.41411   1.00
H2       0.94178    0.29811    0.43179   1.00
H2       0.89620    0.29549    0.40524   1.00
H2       0.91102    0.25566    0.43622   1.00
C4       0.75020    -0.02067   0.25075   1.00
C4       0.74980    0.02067    0.24925   1.00
C3       0.78511    -0.04244   0.24520   1.00
C3       0.78281    0.04244    0.23661   1.00
C4       0.71500    -0.04150   0.25766   1.00
C4       0.71586    0.04150    0.26086   1.00
C2       0.75060    -0.10352   0.24982   1.00
C2       0.75061    0.10352    0.24985   1.00
C3       0.78504    -0.08310   0.24441   1.00
C3       0.78314    0.08310    0.23732   1.00
C3       0.71604    -0.08306   0.25691   1.00
C3       0.71713    0.08306    0.26099   1.00
H1       0.81329    -0.02888   0.24229   1.00
H1       0.80867    0.02888    0.22504   1.00
C5       0.67989    -0.02065   0.26569   1.00
C5       0.68143    0.02065    0.27146   1.00
H1       0.81204    -0.09886   0.23980   1.00
H1       0.80883    0.09886    0.22782   1.00
H1       0.69046    -0.10053   0.26236   1.00
H1       0.69225    0.10053    0.26906   1.00
C6       0.64088    -0.04234   0.26654   1.00
C6       0.64723    0.04234    0.29022   1.00
H2       0.61718    -0.02358   0.25493   1.00
H2       0.64052    -0.06737   0.24620   1.00
C6       0.63152    -0.05724   0.30778   1.00
H2       0.63250    0.02358    0.31212   1.00
H2       0.65708    0.06737    0.30802   1.00
C6       0.61850    0.05724    0.25919   1.00
H2       0.63070    -0.03274   0.32905   1.00
C6       0.59229    -0.07832   0.30825   1.00
H2       0.65480    -0.07760   0.31774   1.00
C6       0.58429    0.07832    0.27839   1.00
H2       0.63369    0.07760    0.23892   1.00
H2       0.60716    0.03274    0.24117   1.00
H2       0.56850    -0.05822   0.29921   1.00
H2       0.59281    -0.10380   0.28820   1.00
H2       0.58589    -0.08898   0.33818   1.00
H2       0.56821    0.05822    0.29811   1.00
H2       0.59476    0.10380    0.29549   1.00
H2       0.56378    0.08898    0.25566   1.00
C4       0.75075    0.25020    -0.02067   1.00
C4       0.74925    0.24980    0.02067   1.00
C3       0.74520    0.28511    -0.04244   1.00
C3       0.73661    0.28281    0.04244   1.00
C4       0.75766    0.21500    -0.04150   1.00
C4       0.76086    0.21586    0.04150   1.00
C2       0.74982    0.25060    -0.10352   1.00
C2       0.74985    0.25061    0.10352   1.00
C3       0.74441    0.28504    -0.08310   1.00
C3       0.73732    0.28314    0.08310   1.00
C3       0.75691    0.21604    -0.08306   1.00
C3       0.76099    0.21713    0.08306   1.00
H1       0.74229    0.31329    -0.02888   1.00
H1       0.72504    0.30867    0.02888   1.00
C5       0.76569    0.17989    -0.02065   1.00
C5       0.77146    0.18143    0.02065   1.00
H1       0.73980    0.31204    -0.09886   1.00
H1       0.72782    0.30883    0.09886   1.00
H1       0.76236    0.19046    -0.10053   1.00
H1       0.76906    0.19225    0.10053   1.00
C6       0.76654    0.14088    -0.04234   1.00
C6       0.79022    0.14723    0.04234   1.00
H2       0.75493    0.11718    -0.02358   1.00
H2       0.74620    0.14052    -0.06737   1.00
C6       0.80778    0.13152    -0.05724   1.00
H2       0.81212    0.13250    0.02358   1.00
H2       0.80802    0.15708    0.06737   1.00
C6       0.75919    0.11850    0.05724   1.00
H2       0.82905    0.13070    -0.03274   1.00
C6       0.80825    0.09229    -0.07832   1.00
H2       0.81774    0.15480    -0.07760   1.00
C6       0.77839    0.08429    0.07832   1.00
H2       0.73892    0.13369    0.07760   1.00
H2       0.74117    0.10716    0.03274   1.00
H2       0.79921    0.06850    -0.05822   1.00
H2       0.78820    0.09281    -0.10380   1.00
H2       0.83818    0.08589    -0.08898   1.00
H2       0.79811    0.06821    0.05822   1.00
H2       0.79549    0.09476    0.10380   1.00
H2       0.75566    0.06378    0.08898   1.00
