data_IRMOF10_SG202_Ligand9_label_r.

_audit_creation_method             'generated by an auxiliary program of Tobunporous'

_symmetry_space_group_name_H-M     'P 1'
_symmetry_Int_Tables_number        1
_symmetry_cell_setting             triclinic

_cell_length_a                    34.2800
_cell_length_b                    34.2800
_cell_length_c                    34.2800
_cell_angle_alpha                 90.0000
_cell_angle_beta                  90.0000
_cell_angle_gamma                 90.0000

loop_
_atom_site_label
_atom_site_fract_x
_atom_site_fract_y
_atom_site_fract_z
_atom_site_occupancy
O1       0.75000    0.75000    0.75000   1.00
Zn1      0.71720    0.78280    0.78280   1.00
Zn1      0.78280    0.71720    0.78280   1.00
Zn1      0.78280    0.78280    0.71720   1.00
Zn1      0.71720    0.71720    0.71720   1.00
O2       0.72650    0.77350    0.83820   1.00
O2       0.72650    0.83820    0.77350   1.00
O2       0.66180    0.77350    0.77350   1.00
O2       0.77350    0.72650    0.83820   1.00
O2       0.83820    0.72650    0.77350   1.00
O2       0.77350    0.66180    0.77350   1.00
O2       0.77350    0.83820    0.72650   1.00
O2       0.83820    0.77350    0.72650   1.00
O2       0.77350    0.77350    0.66180   1.00
O2       0.66180    0.72650    0.72650   1.00
O2       0.72650    0.66180    0.72650   1.00
O2       0.72650    0.72650    0.66180   1.00
C1       0.75000    0.75000    0.85520   1.00
C1       0.75000    0.85520    0.75000   1.00
C1       0.64480    0.75000    0.75000   1.00
C1       0.85520    0.75000    0.75000   1.00
C1       0.75000    0.64480    0.75000   1.00
C1       0.75000    0.75000    0.64480   1.00
O1       0.25000    0.25000    0.75000   1.00
Zn1      0.21720    0.28280    0.78280   1.00
Zn1      0.28280    0.21720    0.78280   1.00
Zn1      0.28280    0.28280    0.71720   1.00
Zn1      0.21720    0.21720    0.71720   1.00
O2       0.22650    0.27350    0.83820   1.00
O2       0.22650    0.33820    0.77350   1.00
O2       0.16180    0.27350    0.77350   1.00
O2       0.27350    0.22650    0.83820   1.00
O2       0.33820    0.22650    0.77350   1.00
O2       0.27350    0.16180    0.77350   1.00
O2       0.27350    0.33820    0.72650   1.00
O2       0.33820    0.27350    0.72650   1.00
O2       0.27350    0.27350    0.66180   1.00
O2       0.16180    0.22650    0.72650   1.00
O2       0.22650    0.16180    0.72650   1.00
O2       0.22650    0.22650    0.66180   1.00
C1       0.25000    0.25000    0.85520   1.00
C1       0.25000    0.35520    0.75000   1.00
C1       0.14480    0.25000    0.75000   1.00
C1       0.35520    0.25000    0.75000   1.00
C1       0.25000    0.14480    0.75000   1.00
C1       0.25000    0.25000    0.64480   1.00
O1       0.25000    0.75000    0.25000   1.00
Zn1      0.21720    0.78280    0.28280   1.00
Zn1      0.28280    0.71720    0.28280   1.00
Zn1      0.28280    0.78280    0.21720   1.00
Zn1      0.21720    0.71720    0.21720   1.00
O2       0.22650    0.77350    0.33820   1.00
O2       0.22650    0.83820    0.27350   1.00
O2       0.16180    0.77350    0.27350   1.00
O2       0.27350    0.72650    0.33820   1.00
O2       0.33820    0.72650    0.27350   1.00
O2       0.27350    0.66180    0.27350   1.00
O2       0.27350    0.83820    0.22650   1.00
O2       0.33820    0.77350    0.22650   1.00
O2       0.27350    0.77350    0.16180   1.00
O2       0.16180    0.72650    0.22650   1.00
O2       0.22650    0.66180    0.22650   1.00
O2       0.22650    0.72650    0.16180   1.00
C1       0.25000    0.75000    0.35520   1.00
C1       0.25000    0.85520    0.25000   1.00
C1       0.14480    0.75000    0.25000   1.00
C1       0.35520    0.75000    0.25000   1.00
C1       0.25000    0.64480    0.25000   1.00
C1       0.25000    0.75000    0.14480   1.00
O1       0.75000    0.25000    0.25000   1.00
Zn1      0.71720    0.28280    0.28280   1.00
Zn1      0.78280    0.21720    0.28280   1.00
Zn1      0.78280    0.28280    0.21720   1.00
Zn1      0.71720    0.21720    0.21720   1.00
O2       0.72650    0.27350    0.33820   1.00
O2       0.72650    0.33820    0.27350   1.00
O2       0.66180    0.27350    0.27350   1.00
O2       0.77350    0.22650    0.33820   1.00
O2       0.83820    0.22650    0.27350   1.00
O2       0.77350    0.16180    0.27350   1.00
O2       0.77350    0.33820    0.22650   1.00
O2       0.83820    0.27350    0.22650   1.00
O2       0.77350    0.27350    0.16180   1.00
O2       0.66180    0.22650    0.22650   1.00
O2       0.72650    0.16180    0.22650   1.00
O2       0.72650    0.22650    0.16180   1.00
C1       0.75000    0.25000    0.35520   1.00
C1       0.75000    0.35520    0.25000   1.00
C1       0.64480    0.25000    0.25000   1.00
C1       0.85520    0.25000    0.25000   1.00
C1       0.75000    0.14480    0.25000   1.00
C1       0.75000    0.25000    0.14480   1.00
O1       0.25000    0.25000    0.25000   1.00
Zn1      0.28280    0.21720    0.21720   1.00
Zn1      0.21720    0.28280    0.21720   1.00
Zn1      0.21720    0.21720    0.28280   1.00
Zn1      0.28280    0.28280    0.28280   1.00
O2       0.27350    0.22650    0.16180   1.00
O2       0.27350    0.16180    0.22650   1.00
O2       0.33820    0.22650    0.22650   1.00
O2       0.22650    0.27350    0.16180   1.00
O2       0.16180    0.27350    0.22650   1.00
O2       0.22650    0.33820    0.22650   1.00
O2       0.22650    0.16180    0.27350   1.00
O2       0.16180    0.22650    0.27350   1.00
O2       0.22650    0.22650    0.33820   1.00
O2       0.33820    0.27350    0.27350   1.00
O2       0.27350    0.33820    0.27350   1.00
O2       0.27350    0.27350    0.33820   1.00
C1       0.25000    0.25000    0.14480   1.00
C1       0.25000    0.14480    0.25000   1.00
C1       0.35520    0.25000    0.25000   1.00
C1       0.14480    0.25000    0.25000   1.00
C1       0.25000    0.35520    0.25000   1.00
C1       0.25000    0.25000    0.35520   1.00
O1       0.75000    0.75000    0.25000   1.00
Zn1      0.78280    0.71720    0.21720   1.00
Zn1      0.71720    0.78280    0.21720   1.00
Zn1      0.71720    0.71720    0.28280   1.00
Zn1      0.78280    0.78280    0.28280   1.00
O2       0.77350    0.72650    0.16180   1.00
O2       0.77350    0.66180    0.22650   1.00
O2       0.83820    0.72650    0.22650   1.00
O2       0.72650    0.77350    0.16180   1.00
O2       0.66180    0.77350    0.22650   1.00
O2       0.72650    0.83820    0.22650   1.00
O2       0.72650    0.66180    0.27350   1.00
O2       0.66180    0.72650    0.27350   1.00
O2       0.72650    0.72650    0.33820   1.00
O2       0.83820    0.77350    0.27350   1.00
O2       0.77350    0.83820    0.27350   1.00
O2       0.77350    0.77350    0.33820   1.00
C1       0.75000    0.75000    0.14480   1.00
C1       0.75000    0.64480    0.25000   1.00
C1       0.85520    0.75000    0.25000   1.00
C1       0.64480    0.75000    0.25000   1.00
C1       0.75000    0.85520    0.25000   1.00
C1       0.75000    0.75000    0.35520   1.00
O1       0.75000    0.25000    0.75000   1.00
Zn1      0.78280    0.21720    0.71720   1.00
Zn1      0.71720    0.28280    0.71720   1.00
Zn1      0.71720    0.21720    0.78280   1.00
Zn1      0.78280    0.28280    0.78280   1.00
O2       0.77350    0.22650    0.66180   1.00
O2       0.77350    0.16180    0.72650   1.00
O2       0.83820    0.22650    0.72650   1.00
O2       0.72650    0.27350    0.66180   1.00
O2       0.66180    0.27350    0.72650   1.00
O2       0.72650    0.33820    0.72650   1.00
O2       0.72650    0.16180    0.77350   1.00
O2       0.66180    0.22650    0.77350   1.00
O2       0.72650    0.22650    0.83820   1.00
O2       0.83820    0.27350    0.77350   1.00
O2       0.77350    0.33820    0.77350   1.00
O2       0.77350    0.27350    0.83820   1.00
C1       0.75000    0.25000    0.64480   1.00
C1       0.75000    0.14480    0.75000   1.00
C1       0.85520    0.25000    0.75000   1.00
C1       0.64480    0.25000    0.75000   1.00
C1       0.75000    0.35520    0.75000   1.00
C1       0.75000    0.25000    0.85520   1.00
O1       0.25000    0.75000    0.75000   1.00
Zn1      0.28280    0.71720    0.71720   1.00
Zn1      0.21720    0.78280    0.71720   1.00
Zn1      0.21720    0.71720    0.78280   1.00
Zn1      0.28280    0.78280    0.78280   1.00
O2       0.27350    0.72650    0.66180   1.00
O2       0.27350    0.66180    0.72650   1.00
O2       0.33820    0.72650    0.72650   1.00
O2       0.22650    0.77350    0.66180   1.00
O2       0.16180    0.77350    0.72650   1.00
O2       0.22650    0.83820    0.72650   1.00
O2       0.22650    0.66180    0.77350   1.00
O2       0.16180    0.72650    0.77350   1.00
O2       0.22650    0.72650    0.83820   1.00
O2       0.33820    0.77350    0.77350   1.00
O2       0.27350    0.83820    0.77350   1.00
O2       0.27350    0.77350    0.83820   1.00
C1       0.25000    0.75000    0.64480   1.00
C1       0.25000    0.64480    0.75000   1.00
C1       0.35520    0.75000    0.75000   1.00
C1       0.14480    0.75000    0.75000   1.00
C1       0.25000    0.85520    0.75000   1.00
C1       0.25000    0.75000    0.85520   1.00
C4       0.74927    0.74973    0.97917   1.00
C4       0.75073    0.75027    1.02083   1.00
C3       0.71420    0.75670    0.95846   1.00
C3       0.72967    0.77783    1.04321   1.00
C3       0.78316    0.74311    0.95643   1.00
C3       0.77274    0.72236    1.04187   1.00
C2       0.74698    0.75047    0.89487   1.00
C2       0.75273    0.74966    1.10514   1.00
C3       0.71315    0.75699    0.91715   1.00
C3       0.73075    0.77751    1.08449   1.00
C3       0.78195    0.74348    0.91514   1.00
C3a      0.77391    0.72193    1.08328   1.00
H1       0.68729    0.76159    0.97425   1.00
H1       0.71259    0.80014    1.02875   1.00
H1       0.68574    0.76235    0.90240   1.00
H1       0.71436    0.79923    1.10056   1.00
H1       0.80853    0.73851    0.89882   1.00
C5       0.79775    0.69127    1.10380   1.00
H1       0.78914    0.70039    1.02622   1.00
H1       0.81101    0.73840    0.97059   1.00
H2       0.79640    0.69507    1.13599   1.00
H2       0.78516    0.66215    1.09705   1.00
N1       0.83851    0.69308    1.09125   1.00
C6       0.86297    0.72339    1.09644   1.00
C6       0.85856    0.66472    1.07288   1.00
C6       0.89904    0.71442    1.08102   1.00
C6       0.89624    0.67710    1.06604   1.00
H3       0.85509    0.75059    1.11049   1.00
H3       0.84665    0.63659    1.06484   1.00
H3       0.92454    0.73299    1.08076   1.00
H3       0.91913    0.66073    1.05180   1.00
C4       0.74973    0.97917    0.74927   1.00
C4       0.75027    1.02083    0.75073   1.00
C3       0.75670    0.95846    0.71420   1.00
C3       0.77783    1.04321    0.72967   1.00
C3       0.74311    0.95643    0.78316   1.00
C3       0.72236    1.04187    0.77274   1.00
C2       0.75047    0.89487    0.74698   1.00
C2       0.74966    1.10514    0.75273   1.00
C3       0.75699    0.91715    0.71315   1.00
C3       0.77751    1.08449    0.73075   1.00
C3       0.74348    0.91514    0.78195   1.00
C3a      0.72193    1.08328    0.77391   1.00
H1       0.76159    0.97425    0.68729   1.00
H1       0.80014    1.02875    0.71259   1.00
H1       0.76235    0.90240    0.68574   1.00
H1       0.79923    1.10056    0.71436   1.00
H1       0.73851    0.89882    0.80853   1.00
C5       0.69127    1.10380    0.79775   1.00
H1       0.70039    1.02622    0.78914   1.00
H1       0.73840    0.97059    0.81101   1.00
H2       0.69507    1.13599    0.79640   1.00
H2       0.66215    1.09705    0.78516   1.00
N1       0.69308    1.09125    0.83851   1.00
C6       0.72339    1.09644    0.86297   1.00
C6       0.66472    1.07288    0.85856   1.00
C6       0.71442    1.08102    0.89904   1.00
C6       0.67710    1.06604    0.89624   1.00
H3       0.75059    1.11049    0.85509   1.00
H3       0.63659    1.06484    0.84665   1.00
H3       0.73299    1.08076    0.92454   1.00
H3       0.66073    1.05180    0.91913   1.00
C4       0.52083    0.74927    0.75027   1.00
C4       0.47917    0.75073    0.74973   1.00
C3       0.54154    0.71420    0.74330   1.00
C3       0.45679    0.72967    0.72217   1.00
C3       0.54357    0.78316    0.75689   1.00
C3       0.45813    0.77274    0.77764   1.00
C2       0.60513    0.74698    0.74953   1.00
C2       0.39486    0.75273    0.75034   1.00
C3       0.58285    0.71315    0.74301   1.00
C3       0.41551    0.73075    0.72249   1.00
C3       0.58486    0.78195    0.75652   1.00
C3a      0.41672    0.77391    0.77807   1.00
H1       0.52575    0.68729    0.73841   1.00
H1       0.47125    0.71259    0.69986   1.00
H1       0.59760    0.68574    0.73765   1.00
H1       0.39944    0.71436    0.70077   1.00
H1       0.60118    0.80853    0.76149   1.00
C5       0.39620    0.79775    0.80873   1.00
H1       0.47378    0.78914    0.79961   1.00
H1       0.52941    0.81101    0.76160   1.00
H2       0.36401    0.79640    0.80493   1.00
H2       0.40295    0.78516    0.83785   1.00
N1       0.40875    0.83851    0.80692   1.00
C6       0.40356    0.86297    0.77661   1.00
C6       0.42712    0.85856    0.83528   1.00
C6       0.41898    0.89904    0.78558   1.00
C6       0.43396    0.89624    0.82290   1.00
H3       0.38951    0.85509    0.74941   1.00
H3       0.43516    0.84665    0.86341   1.00
H3       0.41924    0.92454    0.76701   1.00
H3       0.44820    0.91913    0.83927   1.00
C4       0.97917    0.74927    0.74973   1.00
C4       1.02083    0.75073    0.75027   1.00
C3       0.95846    0.71420    0.75670   1.00
C3       1.04321    0.72967    0.77783   1.00
C3       0.95643    0.78316    0.74311   1.00
C3       1.04187    0.77274    0.72236   1.00
C2       0.89487    0.74698    0.75047   1.00
C2       1.10514    0.75273    0.74966   1.00
C3       0.91715    0.71315    0.75699   1.00
C3       1.08449    0.73075    0.77751   1.00
C3       0.91514    0.78195    0.74348   1.00
C3a      1.08328    0.77391    0.72193   1.00
H1       0.97425    0.68729    0.76159   1.00
H1       1.02875    0.71259    0.80014   1.00
H1       0.90240    0.68574    0.76235   1.00
H1       1.10056    0.71436    0.79923   1.00
H1       0.89882    0.80853    0.73851   1.00
C5       1.10380    0.79775    0.69127   1.00
H1       1.02622    0.78914    0.70039   1.00
H1       0.97059    0.81101    0.73840   1.00
H2       1.13599    0.79640    0.69507   1.00
H2       1.09705    0.78516    0.66215   1.00
N1       1.09125    0.83851    0.69308   1.00
C6       1.09644    0.86297    0.72339   1.00
C6       1.07288    0.85856    0.66472   1.00
C6       1.08102    0.89904    0.71442   1.00
C6       1.06604    0.89624    0.67710   1.00
H3       1.11049    0.85509    0.75059   1.00
H3       1.06484    0.84665    0.63659   1.00
H3       1.08076    0.92454    0.73299   1.00
H3       1.05180    0.91913    0.66073   1.00
C4       0.75027    0.52083    0.74927   1.00
C4       0.74973    0.47917    0.75073   1.00
C3       0.74330    0.54154    0.71420   1.00
C3       0.72217    0.45679    0.72967   1.00
C3       0.75689    0.54357    0.78316   1.00
C3       0.77764    0.45813    0.77274   1.00
C2       0.74953    0.60513    0.74698   1.00
C2       0.75034    0.39486    0.75273   1.00
C3       0.74301    0.58285    0.71315   1.00
C3       0.72249    0.41551    0.73075   1.00
C3       0.75652    0.58486    0.78195   1.00
C3a      0.77807    0.41672    0.77391   1.00
H1       0.73841    0.52575    0.68729   1.00
H1       0.69986    0.47125    0.71259   1.00
H1       0.73765    0.59760    0.68574   1.00
H1       0.70077    0.39944    0.71436   1.00
H1       0.76149    0.60118    0.80853   1.00
C5       0.80873    0.39620    0.79775   1.00
H1       0.79961    0.47378    0.78914   1.00
H1       0.76160    0.52941    0.81101   1.00
H2       0.80493    0.36401    0.79640   1.00
H2       0.83785    0.40295    0.78516   1.00
N1       0.80692    0.40875    0.83851   1.00
C6       0.77661    0.40356    0.86297   1.00
C6       0.83528    0.42712    0.85856   1.00
C6       0.78558    0.41898    0.89904   1.00
C6       0.82290    0.43396    0.89624   1.00
H3       0.74941    0.38951    0.85509   1.00
H3       0.86341    0.43516    0.84665   1.00
H3       0.76701    0.41924    0.92454   1.00
H3       0.83927    0.44820    0.91913   1.00
C4       0.74927    0.75027    0.52083   1.00
C4       0.75073    0.74973    0.47917   1.00
C3       0.71420    0.74330    0.54154   1.00
C3       0.72967    0.72217    0.45679   1.00
C3       0.78316    0.75689    0.54357   1.00
C3       0.77274    0.77764    0.45813   1.00
C2       0.74698    0.74953    0.60513   1.00
C2       0.75273    0.75034    0.39486   1.00
C3       0.71315    0.74301    0.58285   1.00
C3       0.73075    0.72249    0.41551   1.00
C3       0.78195    0.75652    0.58486   1.00
C3a      0.77391    0.77807    0.41672   1.00
H1       0.68729    0.73841    0.52575   1.00
H1       0.71259    0.69986    0.47125   1.00
H1       0.68574    0.73765    0.59760   1.00
H1       0.71436    0.70077    0.39944   1.00
H1       0.80853    0.76149    0.60118   1.00
C5       0.79775    0.80873    0.39620   1.00
H1       0.78914    0.79961    0.47378   1.00
H1       0.81101    0.76160    0.52941   1.00
H2       0.79640    0.80493    0.36401   1.00
H2       0.78516    0.83785    0.40295   1.00
N1       0.83851    0.80692    0.40875   1.00
C6       0.86297    0.77661    0.40356   1.00
C6       0.85856    0.83528    0.42712   1.00
C6       0.89904    0.78558    0.41898   1.00
C6       0.89624    0.82290    0.43396   1.00
H3       0.85509    0.74941    0.38951   1.00
H3       0.84665    0.86341    0.43516   1.00
H3       0.92454    0.76701    0.41924   1.00
H3       0.91913    0.83927    0.44820   1.00
C4       0.24927    0.24973    0.97917   1.00
C4       0.25073    0.25027    1.02083   1.00
C3       0.21420    0.25670    0.95846   1.00
C3       0.22967    0.27783    1.04321   1.00
C3       0.28316    0.24311    0.95643   1.00
C3       0.27274    0.22236    1.04187   1.00
C2       0.24698    0.25047    0.89487   1.00
C2       0.25273    0.24966    1.10514   1.00
C3       0.21315    0.25699    0.91715   1.00
C3       0.23075    0.27751    1.08449   1.00
C3       0.28195    0.24348    0.91514   1.00
C3a      0.27391    0.22193    1.08328   1.00
H1       0.18729    0.26159    0.97425   1.00
H1       0.21259    0.30014    1.02875   1.00
H1       0.18574    0.26235    0.90240   1.00
H1       0.21436    0.29923    1.10056   1.00
H1       0.30853    0.23851    0.89882   1.00
C5       0.29775    0.19127    1.10380   1.00
H1       0.28914    0.20039    1.02622   1.00
H1       0.31101    0.23840    0.97059   1.00
H2       0.29640    0.19507    1.13599   1.00
H2       0.28516    0.16215    1.09705   1.00
N1       0.33851    0.19308    1.09125   1.00
C6       0.36297    0.22339    1.09644   1.00
C6       0.35856    0.16472    1.07288   1.00
C6       0.39904    0.21442    1.08102   1.00
C6       0.39624    0.17710    1.06604   1.00
H3       0.35509    0.25059    1.11049   1.00
H3       0.34665    0.13659    1.06484   1.00
H3       0.42454    0.23299    1.08076   1.00
H3       0.41913    0.16073    1.05180   1.00
C4       0.24973    0.47917    0.74927   1.00
C4       0.25027    0.52083    0.75073   1.00
C3       0.25670    0.45846    0.71420   1.00
C3       0.27783    0.54321    0.72967   1.00
C3       0.24311    0.45643    0.78316   1.00
C3       0.22236    0.54187    0.77274   1.00
C2       0.25047    0.39487    0.74698   1.00
C2       0.24966    0.60514    0.75273   1.00
C3       0.25699    0.41715    0.71315   1.00
C3       0.27751    0.58449    0.73075   1.00
C3       0.24348    0.41514    0.78195   1.00
C3a      0.22193    0.58328    0.77391   1.00
H1       0.26159    0.47425    0.68729   1.00
H1       0.30014    0.52875    0.71259   1.00
H1       0.26235    0.40240    0.68574   1.00
H1       0.29923    0.60056    0.71436   1.00
H1       0.23851    0.39882    0.80853   1.00
C5       0.19127    0.60380    0.79775   1.00
H1       0.20039    0.52622    0.78914   1.00
H1       0.23840    0.47059    0.81101   1.00
H2       0.19507    0.63599    0.79640   1.00
H2       0.16215    0.59705    0.78516   1.00
N1       0.19308    0.59125    0.83851   1.00
C6       0.22339    0.59644    0.86297   1.00
C6       0.16472    0.57288    0.85856   1.00
C6       0.21442    0.58102    0.89904   1.00
C6       0.17710    0.56604    0.89624   1.00
H3       0.25059    0.61049    0.85509   1.00
H3       0.13659    0.56484    0.84665   1.00
H3       0.23299    0.58076    0.92454   1.00
H3       0.16073    0.55180    0.91913   1.00
C4       0.02083    0.24927    0.75027   1.00
C4       -0.02083   0.25073    0.74973   1.00
C3       0.04154    0.21420    0.74330   1.00
C3       -0.04321   0.22967    0.72217   1.00
C3       0.04357    0.28316    0.75689   1.00
C3       -0.04187   0.27274    0.77764   1.00
C2       0.10513    0.24698    0.74953   1.00
C2       -0.10514   0.25273    0.75034   1.00
C3       0.08285    0.21315    0.74301   1.00
C3       -0.08449   0.23075    0.72249   1.00
C3       0.08486    0.28195    0.75652   1.00
C3a      -0.08328   0.27391    0.77807   1.00
H1       0.02575    0.18729    0.73841   1.00
H1       -0.02875   0.21259    0.69986   1.00
H1       0.09760    0.18574    0.73765   1.00
H1       -0.10056   0.21436    0.70077   1.00
H1       0.10118    0.30853    0.76149   1.00
C5       -0.10380   0.29775    0.80873   1.00
H1       -0.02622   0.28914    0.79961   1.00
H1       0.02941    0.31101    0.76160   1.00
H2       -0.13599   0.29640    0.80493   1.00
H2       -0.09705   0.28516    0.83785   1.00
N1       -0.09125   0.33851    0.80692   1.00
C6       -0.09644   0.36297    0.77661   1.00
C6       -0.07288   0.35856    0.83528   1.00
C6       -0.08102   0.39904    0.78558   1.00
C6       -0.06604   0.39624    0.82290   1.00
H3       -0.11049   0.35509    0.74941   1.00
H3       -0.06484   0.34665    0.86341   1.00
H3       -0.08076   0.42454    0.76701   1.00
H3       -0.05180   0.41913    0.83927   1.00
C4       0.47917    0.24927    0.74973   1.00
C4       0.52083    0.25073    0.75027   1.00
C3       0.45846    0.21420    0.75670   1.00
C3       0.54321    0.22967    0.77783   1.00
C3       0.45643    0.28316    0.74311   1.00
C3       0.54187    0.27274    0.72236   1.00
C2       0.39487    0.24698    0.75047   1.00
C2       0.60514    0.25273    0.74966   1.00
C3       0.41715    0.21315    0.75699   1.00
C3       0.58449    0.23075    0.77751   1.00
C3       0.41514    0.28195    0.74348   1.00
C3a      0.58328    0.27391    0.72193   1.00
H1       0.47425    0.18729    0.76159   1.00
H1       0.52875    0.21259    0.80014   1.00
H1       0.40240    0.18574    0.76235   1.00
H1       0.60056    0.21436    0.79923   1.00
H1       0.39882    0.30853    0.73851   1.00
C5       0.60380    0.29775    0.69127   1.00
H1       0.52622    0.28914    0.70039   1.00
H1       0.47059    0.31101    0.73840   1.00
H2       0.63599    0.29640    0.69507   1.00
H2       0.59705    0.28516    0.66215   1.00
N1       0.59125    0.33851    0.69308   1.00
C6       0.59644    0.36297    0.72339   1.00
C6       0.57288    0.35856    0.66472   1.00
C6       0.58102    0.39904    0.71442   1.00
C6       0.56604    0.39624    0.67710   1.00
H3       0.61049    0.35509    0.75059   1.00
H3       0.56484    0.34665    0.63659   1.00
H3       0.58076    0.42454    0.73299   1.00
H3       0.55180    0.41913    0.66073   1.00
C4       0.25027    0.02083    0.74927   1.00
C4       0.24973    -0.02083   0.75073   1.00
C3       0.24330    0.04154    0.71420   1.00
C3       0.22217    -0.04321   0.72967   1.00
C3       0.25689    0.04357    0.78316   1.00
C3       0.27764    -0.04187   0.77274   1.00
C2       0.24953    0.10513    0.74698   1.00
C2       0.25034    -0.10514   0.75273   1.00
C3       0.24301    0.08285    0.71315   1.00
C3       0.22249    -0.08449   0.73075   1.00
C3       0.25652    0.08486    0.78195   1.00
C3a      0.27807    -0.08328   0.77391   1.00
H1       0.23841    0.02575    0.68729   1.00
H1       0.19986    -0.02875   0.71259   1.00
H1       0.23765    0.09760    0.68574   1.00
H1       0.20077    -0.10056   0.71436   1.00
H1       0.26149    0.10118    0.80853   1.00
C5       0.30873    -0.10380   0.79775   1.00
H1       0.29961    -0.02622   0.78914   1.00
H1       0.26160    0.02941    0.81101   1.00
H2       0.30493    -0.13599   0.79640   1.00
H2       0.33785    -0.09705   0.78516   1.00
N1       0.30692    -0.09125   0.83851   1.00
C6       0.27661    -0.09644   0.86297   1.00
C6       0.33528    -0.07288   0.85856   1.00
C6       0.28558    -0.08102   0.89904   1.00
C6       0.32290    -0.06604   0.89624   1.00
H3       0.24941    -0.11049   0.85509   1.00
H3       0.36341    -0.06484   0.84665   1.00
H3       0.26701    -0.08076   0.92454   1.00
H3       0.33927    -0.05180   0.91913   1.00
C4       0.24927    0.25027    0.52083   1.00
C4       0.25073    0.24973    0.47917   1.00
C3       0.21420    0.24330    0.54154   1.00
C3       0.22967    0.22217    0.45679   1.00
C3       0.28316    0.25689    0.54357   1.00
C3       0.27274    0.27764    0.45813   1.00
C2       0.24698    0.24953    0.60513   1.00
C2       0.25273    0.25034    0.39486   1.00
C3       0.21315    0.24301    0.58285   1.00
C3       0.23075    0.22249    0.41551   1.00
C3       0.28195    0.25652    0.58486   1.00
C3a      0.27391    0.27807    0.41672   1.00
H1       0.18729    0.23841    0.52575   1.00
H1       0.21259    0.19986    0.47125   1.00
H1       0.18574    0.23765    0.59760   1.00
H1       0.21436    0.20077    0.39944   1.00
H1       0.30853    0.26149    0.60118   1.00
C5       0.29775    0.30873    0.39620   1.00
H1       0.28914    0.29961    0.47378   1.00
H1       0.31101    0.26160    0.52941   1.00
H2       0.29640    0.30493    0.36401   1.00
H2       0.28516    0.33785    0.40295   1.00
N1       0.33851    0.30692    0.40875   1.00
C6       0.36297    0.27661    0.40356   1.00
C6       0.35856    0.33528    0.42712   1.00
C6       0.39904    0.28558    0.41898   1.00
C6       0.39624    0.32290    0.43396   1.00
H3       0.35509    0.24941    0.38951   1.00
H3       0.34665    0.36341    0.43516   1.00
H3       0.42454    0.26701    0.41924   1.00
H3       0.41913    0.33927    0.44820   1.00
C4       0.24927    0.74973    0.47917   1.00
C4       0.25073    0.75027    0.52083   1.00
C3       0.21420    0.75670    0.45846   1.00
C3       0.22967    0.77783    0.54321   1.00
C3       0.28316    0.74311    0.45643   1.00
C3       0.27274    0.72236    0.54187   1.00
C2       0.24698    0.75047    0.39487   1.00
C2       0.25273    0.74966    0.60514   1.00
C3       0.21315    0.75699    0.41715   1.00
C3       0.23075    0.77751    0.58449   1.00
C3       0.28195    0.74348    0.41514   1.00
C3a      0.27391    0.72193    0.58328   1.00
H1       0.18729    0.76159    0.47425   1.00
H1       0.21259    0.80014    0.52875   1.00
H1       0.18574    0.76235    0.40240   1.00
H1       0.21436    0.79923    0.60056   1.00
H1       0.30853    0.73851    0.39882   1.00
C5       0.29775    0.69127    0.60380   1.00
H1       0.28914    0.70039    0.52622   1.00
H1       0.31101    0.73840    0.47059   1.00
H2       0.29640    0.69507    0.63599   1.00
H2       0.28516    0.66215    0.59705   1.00
N1       0.33851    0.69308    0.59125   1.00
C6       0.36297    0.72339    0.59644   1.00
C6       0.35856    0.66472    0.57288   1.00
C6       0.39904    0.71442    0.58102   1.00
C6       0.39624    0.67710    0.56604   1.00
H3       0.35509    0.75059    0.61049   1.00
H3       0.34665    0.63659    0.56484   1.00
H3       0.42454    0.73299    0.58076   1.00
H3       0.41913    0.66073    0.55180   1.00
C4       0.24973    0.97917    0.24927   1.00
C4       0.25027    1.02083    0.25073   1.00
C3       0.25670    0.95846    0.21420   1.00
C3       0.27783    1.04321    0.22967   1.00
C3       0.24311    0.95643    0.28316   1.00
C3       0.22236    1.04187    0.27274   1.00
C2       0.25047    0.89487    0.24698   1.00
C2       0.24966    1.10514    0.25273   1.00
C3       0.25699    0.91715    0.21315   1.00
C3       0.27751    1.08449    0.23075   1.00
C3       0.24348    0.91514    0.28195   1.00
C3a      0.22193    1.08328    0.27391   1.00
H1       0.26159    0.97425    0.18729   1.00
H1       0.30014    1.02875    0.21259   1.00
H1       0.26235    0.90240    0.18574   1.00
H1       0.29923    1.10056    0.21436   1.00
H1       0.23851    0.89882    0.30853   1.00
C5       0.19127    1.10380    0.29775   1.00
H1       0.20039    1.02622    0.28914   1.00
H1       0.23840    0.97059    0.31101   1.00
H2       0.19507    1.13599    0.29640   1.00
H2       0.16215    1.09705    0.28516   1.00
N1       0.19308    1.09125    0.33851   1.00
C6       0.22339    1.09644    0.36297   1.00
C6       0.16472    1.07288    0.35856   1.00
C6       0.21442    1.08102    0.39904   1.00
C6       0.17710    1.06604    0.39624   1.00
H3       0.25059    1.11049    0.35509   1.00
H3       0.13659    1.06484    0.34665   1.00
H3       0.23299    1.08076    0.42454   1.00
H3       0.16073    1.05180    0.41913   1.00
C4       0.02083    0.74927    0.25027   1.00
C4       -0.02083   0.75073    0.24973   1.00
C3       0.04154    0.71420    0.24330   1.00
C3       -0.04321   0.72967    0.22217   1.00
C3       0.04357    0.78316    0.25689   1.00
C3       -0.04187   0.77274    0.27764   1.00
C2       0.10513    0.74698    0.24953   1.00
C2       -0.10514   0.75273    0.25034   1.00
C3       0.08285    0.71315    0.24301   1.00
C3       -0.08449   0.73075    0.22249   1.00
C3       0.08486    0.78195    0.25652   1.00
C3a      -0.08328   0.77391    0.27807   1.00
H1       0.02575    0.68729    0.23841   1.00
H1       -0.02875   0.71259    0.19986   1.00
H1       0.09760    0.68574    0.23765   1.00
H1       -0.10056   0.71436    0.20077   1.00
H1       0.10118    0.80853    0.26149   1.00
C5       -0.10380   0.79775    0.30873   1.00
H1       -0.02622   0.78914    0.29961   1.00
H1       0.02941    0.81101    0.26160   1.00
H2       -0.13599   0.79640    0.30493   1.00
H2       -0.09705   0.78516    0.33785   1.00
N1       -0.09125   0.83851    0.30692   1.00
C6       -0.09644   0.86297    0.27661   1.00
C6       -0.07288   0.85856    0.33528   1.00
C6       -0.08102   0.89904    0.28558   1.00
C6       -0.06604   0.89624    0.32290   1.00
H3       -0.11049   0.85509    0.24941   1.00
H3       -0.06484   0.84665    0.36341   1.00
H3       -0.08076   0.92454    0.26701   1.00
H3       -0.05180   0.91913    0.33927   1.00
C4       0.47917    0.74927    0.24973   1.00
C4       0.52083    0.75073    0.25027   1.00
C3       0.45846    0.71420    0.25670   1.00
C3       0.54321    0.72967    0.27783   1.00
C3       0.45643    0.78316    0.24311   1.00
C3       0.54187    0.77274    0.22236   1.00
C2       0.39487    0.74698    0.25047   1.00
C2       0.60514    0.75273    0.24966   1.00
C3       0.41715    0.71315    0.25699   1.00
C3       0.58449    0.73075    0.27751   1.00
C3       0.41514    0.78195    0.24348   1.00
C3a      0.58328    0.77391    0.22193   1.00
H1       0.47425    0.68729    0.26159   1.00
H1       0.52875    0.71259    0.30014   1.00
H1       0.40240    0.68574    0.26235   1.00
H1       0.60056    0.71436    0.29923   1.00
H1       0.39882    0.80853    0.23851   1.00
C5       0.60380    0.79775    0.19127   1.00
H1       0.52622    0.78914    0.20039   1.00
H1       0.47059    0.81101    0.23840   1.00
H2       0.63599    0.79640    0.19507   1.00
H2       0.59705    0.78516    0.16215   1.00
N1       0.59125    0.83851    0.19308   1.00
C6       0.59644    0.86297    0.22339   1.00
C6       0.57288    0.85856    0.16472   1.00
C6       0.58102    0.89904    0.21442   1.00
C6       0.56604    0.89624    0.17710   1.00
H3       0.61049    0.85509    0.25059   1.00
H3       0.56484    0.84665    0.13659   1.00
H3       0.58076    0.92454    0.23299   1.00
H3       0.55180    0.91913    0.16073   1.00
C4       0.25027    0.52083    0.24927   1.00
C4       0.24973    0.47917    0.25073   1.00
C3       0.24330    0.54154    0.21420   1.00
C3       0.22217    0.45679    0.22967   1.00
C3       0.25689    0.54357    0.28316   1.00
C3       0.27764    0.45813    0.27274   1.00
C2       0.24953    0.60513    0.24698   1.00
C2       0.25034    0.39486    0.25273   1.00
C3       0.24301    0.58285    0.21315   1.00
C3       0.22249    0.41551    0.23075   1.00
C3       0.25652    0.58486    0.28195   1.00
C3a      0.27807    0.41672    0.27391   1.00
H1       0.23841    0.52575    0.18729   1.00
H1       0.19986    0.47125    0.21259   1.00
H1       0.23765    0.59760    0.18574   1.00
H1       0.20077    0.39944    0.21436   1.00
H1       0.26149    0.60118    0.30853   1.00
C5       0.30873    0.39620    0.29775   1.00
H1       0.29961    0.47378    0.28914   1.00
H1       0.26160    0.52941    0.31101   1.00
H2       0.30493    0.36401    0.29640   1.00
H2       0.33785    0.40295    0.28516   1.00
N1       0.30692    0.40875    0.33851   1.00
C6       0.27661    0.40356    0.36297   1.00
C6       0.33528    0.42712    0.35856   1.00
C6       0.28558    0.41898    0.39904   1.00
C6       0.32290    0.43396    0.39624   1.00
H3       0.24941    0.38951    0.35509   1.00
H3       0.36341    0.43516    0.34665   1.00
H3       0.26701    0.41924    0.42454   1.00
H3       0.33927    0.44820    0.41913   1.00
C4       0.24927    0.75027    0.02083   1.00
C4       0.25073    0.74973    -0.02083   1.00
C3       0.21420    0.74330    0.04154   1.00
C3       0.22967    0.72217    -0.04321   1.00
C3       0.28316    0.75689    0.04357   1.00
C3       0.27274    0.77764    -0.04187   1.00
C2       0.24698    0.74953    0.10513   1.00
C2       0.25273    0.75034    -0.10514   1.00
C3       0.21315    0.74301    0.08285   1.00
C3       0.23075    0.72249    -0.08449   1.00
C3       0.28195    0.75652    0.08486   1.00
C3a      0.27391    0.77807    -0.08328   1.00
H1       0.18729    0.73841    0.02575   1.00
H1       0.21259    0.69986    -0.02875   1.00
H1       0.18574    0.73765    0.09760   1.00
H1       0.21436    0.70077    -0.10056   1.00
H1       0.30853    0.76149    0.10118   1.00
C5       0.29775    0.80873    -0.10380   1.00
H1       0.28914    0.79961    -0.02622   1.00
H1       0.31101    0.76160    0.02941   1.00
H2       0.29640    0.80493    -0.13599   1.00
H2       0.28516    0.83785    -0.09705   1.00
N1       0.33851    0.80692    -0.09125   1.00
C6       0.36297    0.77661    -0.09644   1.00
C6       0.35856    0.83528    -0.07288   1.00
C6       0.39904    0.78558    -0.08102   1.00
C6       0.39624    0.82290    -0.06604   1.00
H3       0.35509    0.74941    -0.11049   1.00
H3       0.34665    0.86341    -0.06484   1.00
H3       0.42454    0.76701    -0.08076   1.00
H3       0.41913    0.83927    -0.05180   1.00
C4       0.74927    0.24973    0.47917   1.00
C4       0.75073    0.25027    0.52083   1.00
C3       0.71420    0.25670    0.45846   1.00
C3       0.72967    0.27783    0.54321   1.00
C3       0.78316    0.24311    0.45643   1.00
C3       0.77274    0.22236    0.54187   1.00
C2       0.74698    0.25047    0.39487   1.00
C2       0.75273    0.24966    0.60514   1.00
C3       0.71315    0.25699    0.41715   1.00
C3       0.73075    0.27751    0.58449   1.00
C3       0.78195    0.24348    0.41514   1.00
C3a      0.77391    0.22193    0.58328   1.00
H1       0.68729    0.26159    0.47425   1.00
H1       0.71259    0.30014    0.52875   1.00
H1       0.68574    0.26235    0.40240   1.00
H1       0.71436    0.29923    0.60056   1.00
H1       0.80853    0.23851    0.39882   1.00
C5       0.79775    0.19127    0.60380   1.00
H1       0.78914    0.20039    0.52622   1.00
H1       0.81101    0.23840    0.47059   1.00
H2       0.79640    0.19507    0.63599   1.00
H2       0.78516    0.16215    0.59705   1.00
N1       0.83851    0.19308    0.59125   1.00
C6       0.86297    0.22339    0.59644   1.00
C6       0.85856    0.16472    0.57288   1.00
C6       0.89904    0.21442    0.58102   1.00
C6       0.89624    0.17710    0.56604   1.00
H3       0.85509    0.25059    0.61049   1.00
H3       0.84665    0.13659    0.56484   1.00
H3       0.92454    0.23299    0.58076   1.00
H3       0.91913    0.16073    0.55180   1.00
C4       0.74973    0.47917    0.24927   1.00
C4       0.75027    0.52083    0.25073   1.00
C3       0.75670    0.45846    0.21420   1.00
C3       0.77783    0.54321    0.22967   1.00
C3       0.74311    0.45643    0.28316   1.00
C3       0.72236    0.54187    0.27274   1.00
C2       0.75047    0.39487    0.24698   1.00
C2       0.74966    0.60514    0.25273   1.00
C3       0.75699    0.41715    0.21315   1.00
C3       0.77751    0.58449    0.23075   1.00
C3       0.74348    0.41514    0.28195   1.00
C3a      0.72193    0.58328    0.27391   1.00
H1       0.76159    0.47425    0.18729   1.00
H1       0.80014    0.52875    0.21259   1.00
H1       0.76235    0.40240    0.18574   1.00
H1       0.79923    0.60056    0.21436   1.00
H1       0.73851    0.39882    0.30853   1.00
C5       0.69127    0.60380    0.29775   1.00
H1       0.70039    0.52622    0.28914   1.00
H1       0.73840    0.47059    0.31101   1.00
H2       0.69507    0.63599    0.29640   1.00
H2       0.66215    0.59705    0.28516   1.00
N1       0.69308    0.59125    0.33851   1.00
C6       0.72339    0.59644    0.36297   1.00
C6       0.66472    0.57288    0.35856   1.00
C6       0.71442    0.58102    0.39904   1.00
C6       0.67710    0.56604    0.39624   1.00
H3       0.75059    0.61049    0.35509   1.00
H3       0.63659    0.56484    0.34665   1.00
H3       0.73299    0.58076    0.42454   1.00
H3       0.66073    0.55180    0.41913   1.00
C4       0.52083    0.24927    0.25027   1.00
C4       0.47917    0.25073    0.24973   1.00
C3       0.54154    0.21420    0.24330   1.00
C3       0.45679    0.22967    0.22217   1.00
C3       0.54357    0.28316    0.25689   1.00
C3       0.45813    0.27274    0.27764   1.00
C2       0.60513    0.24698    0.24953   1.00
C2       0.39486    0.25273    0.25034   1.00
C3       0.58285    0.21315    0.24301   1.00
C3       0.41551    0.23075    0.22249   1.00
C3       0.58486    0.28195    0.25652   1.00
C3a      0.41672    0.27391    0.27807   1.00
H1       0.52575    0.18729    0.23841   1.00
H1       0.47125    0.21259    0.19986   1.00
H1       0.59760    0.18574    0.23765   1.00
H1       0.39944    0.21436    0.20077   1.00
H1       0.60118    0.30853    0.26149   1.00
C5       0.39620    0.29775    0.30873   1.00
H1       0.47378    0.28914    0.29961   1.00
H1       0.52941    0.31101    0.26160   1.00
H2       0.36401    0.29640    0.30493   1.00
H2       0.40295    0.28516    0.33785   1.00
N1       0.40875    0.33851    0.30692   1.00
C6       0.40356    0.36297    0.27661   1.00
C6       0.42712    0.35856    0.33528   1.00
C6       0.41898    0.39904    0.28558   1.00
C6       0.43396    0.39624    0.32290   1.00
H3       0.38951    0.35509    0.24941   1.00
H3       0.43516    0.34665    0.36341   1.00
H3       0.41924    0.42454    0.26701   1.00
H3       0.44820    0.41913    0.33927   1.00
C4       0.97917    0.24927    0.24973   1.00
C4       1.02083    0.25073    0.25027   1.00
C3       0.95846    0.21420    0.25670   1.00
C3       1.04321    0.22967    0.27783   1.00
C3       0.95643    0.28316    0.24311   1.00
C3       1.04187    0.27274    0.22236   1.00
C2       0.89487    0.24698    0.25047   1.00
C2       1.10514    0.25273    0.24966   1.00
C3       0.91715    0.21315    0.25699   1.00
C3       1.08449    0.23075    0.27751   1.00
C3       0.91514    0.28195    0.24348   1.00
C3a      1.08328    0.27391    0.22193   1.00
H1       0.97425    0.18729    0.26159   1.00
H1       1.02875    0.21259    0.30014   1.00
H1       0.90240    0.18574    0.26235   1.00
H1       1.10056    0.21436    0.29923   1.00
H1       0.89882    0.30853    0.23851   1.00
C5       1.10380    0.29775    0.19127   1.00
H1       1.02622    0.28914    0.20039   1.00
H1       0.97059    0.31101    0.23840   1.00
H2       1.13599    0.29640    0.19507   1.00
H2       1.09705    0.28516    0.16215   1.00
N1       1.09125    0.33851    0.19308   1.00
C6       1.09644    0.36297    0.22339   1.00
C6       1.07288    0.35856    0.16472   1.00
C6       1.08102    0.39904    0.21442   1.00
C6       1.06604    0.39624    0.17710   1.00
H3       1.11049    0.35509    0.25059   1.00
H3       1.06484    0.34665    0.13659   1.00
H3       1.08076    0.42454    0.23299   1.00
H3       1.05180    0.41913    0.16073   1.00
C4       0.75027    0.02083    0.24927   1.00
C4       0.74973    -0.02083   0.25073   1.00
C3       0.74330    0.04154    0.21420   1.00
C3       0.72217    -0.04321   0.22967   1.00
C3       0.75689    0.04357    0.28316   1.00
C3       0.77764    -0.04187   0.27274   1.00
C2       0.74953    0.10513    0.24698   1.00
C2       0.75034    -0.10514   0.25273   1.00
C3       0.74301    0.08285    0.21315   1.00
C3       0.72249    -0.08449   0.23075   1.00
C3       0.75652    0.08486    0.28195   1.00
C3a      0.77807    -0.08328   0.27391   1.00
H1       0.73841    0.02575    0.18729   1.00
H1       0.69986    -0.02875   0.21259   1.00
H1       0.73765    0.09760    0.18574   1.00
H1       0.70077    -0.10056   0.21436   1.00
H1       0.76149    0.10118    0.30853   1.00
C5       0.80873    -0.10380   0.29775   1.00
H1       0.79961    -0.02622   0.28914   1.00
H1       0.76160    0.02941    0.31101   1.00
H2       0.80493    -0.13599   0.29640   1.00
H2       0.83785    -0.09705   0.28516   1.00
N1       0.80692    -0.09125   0.33851   1.00
C6       0.77661    -0.09644   0.36297   1.00
C6       0.83528    -0.07288   0.35856   1.00
C6       0.78558    -0.08102   0.39904   1.00
C6       0.82290    -0.06604   0.39624   1.00
H3       0.74941    -0.11049   0.35509   1.00
H3       0.86341    -0.06484   0.34665   1.00
H3       0.76701    -0.08076   0.42454   1.00
H3       0.83927    -0.05180   0.41913   1.00
C4       0.74927    0.25027    0.02083   1.00
C4       0.75073    0.24973    -0.02083   1.00
C3       0.71420    0.24330    0.04154   1.00
C3       0.72967    0.22217    -0.04321   1.00
C3       0.78316    0.25689    0.04357   1.00
C3       0.77274    0.27764    -0.04187   1.00
C2       0.74698    0.24953    0.10513   1.00
C2       0.75273    0.25034    -0.10514   1.00
C3       0.71315    0.24301    0.08285   1.00
C3       0.73075    0.22249    -0.08449   1.00
C3       0.78195    0.25652    0.08486   1.00
C3a      0.77391    0.27807    -0.08328   1.00
H1       0.68729    0.23841    0.02575   1.00
H1       0.71259    0.19986    -0.02875   1.00
H1       0.68574    0.23765    0.09760   1.00
H1       0.71436    0.20077    -0.10056   1.00
H1       0.80853    0.26149    0.10118   1.00
C5       0.79775    0.30873    -0.10380   1.00
H1       0.78914    0.29961    -0.02622   1.00
H1       0.81101    0.26160    0.02941   1.00
H2       0.79640    0.30493    -0.13599   1.00
H2       0.78516    0.33785    -0.09705   1.00
N1       0.83851    0.30692    -0.09125   1.00
C6       0.86297    0.27661    -0.09644   1.00
C6       0.85856    0.33528    -0.07288   1.00
C6       0.89904    0.28558    -0.08102   1.00
C6       0.89624    0.32290    -0.06604   1.00
H3       0.85509    0.24941    -0.11049   1.00
H3       0.84665    0.36341    -0.06484   1.00
H3       0.92454    0.26701    -0.08076   1.00
H3       0.91913    0.33927    -0.05180   1.00
