data_IRMOF10_SG202_Ligand3_label_x.

_audit_creation_method             'generated by an auxiliary program of Tobunporous'

_symmetry_space_group_name_H-M     'P 1'
_symmetry_Int_Tables_number        1
_symmetry_cell_setting             triclinic

_cell_length_a                    34.2800
_cell_length_b                    34.2800
_cell_length_c                    34.2800
_cell_angle_alpha                 90.0000
_cell_angle_beta                  90.0000
_cell_angle_gamma                 90.0000

loop_
_atom_site_label
_atom_site_fract_x
_atom_site_fract_y
_atom_site_fract_z
_atom_site_occupancy
O1       0.75000    0.75000    0.75000   1.00
Zn1      0.71720    0.78280    0.78280   1.00
Zn1      0.78280    0.71720    0.78280   1.00
Zn1      0.78280    0.78280    0.71720   1.00
Zn1      0.71720    0.71720    0.71720   1.00
O2       0.72650    0.77350    0.83820   1.00
O2       0.72650    0.83820    0.77350   1.00
O2       0.66180    0.77350    0.77350   1.00
O2       0.77350    0.72650    0.83820   1.00
O2       0.83820    0.72650    0.77350   1.00
O2       0.77350    0.66180    0.77350   1.00
O2       0.77350    0.83820    0.72650   1.00
O2       0.83820    0.77350    0.72650   1.00
O2       0.77350    0.77350    0.66180   1.00
O2       0.66180    0.72650    0.72650   1.00
O2       0.72650    0.66180    0.72650   1.00
O2       0.72650    0.72650    0.66180   1.00
C1       0.75000    0.75000    0.85520   1.00
C1       0.75000    0.85520    0.75000   1.00
C1       0.64480    0.75000    0.75000   1.00
C1       0.85520    0.75000    0.75000   1.00
C1       0.75000    0.64480    0.75000   1.00
C1       0.75000    0.75000    0.64480   1.00
O1       0.25000    0.25000    0.75000   1.00
Zn1      0.21720    0.28280    0.78280   1.00
Zn1      0.28280    0.21720    0.78280   1.00
Zn1      0.28280    0.28280    0.71720   1.00
Zn1      0.21720    0.21720    0.71720   1.00
O2       0.22650    0.27350    0.83820   1.00
O2       0.22650    0.33820    0.77350   1.00
O2       0.16180    0.27350    0.77350   1.00
O2       0.27350    0.22650    0.83820   1.00
O2       0.33820    0.22650    0.77350   1.00
O2       0.27350    0.16180    0.77350   1.00
O2       0.27350    0.33820    0.72650   1.00
O2       0.33820    0.27350    0.72650   1.00
O2       0.27350    0.27350    0.66180   1.00
O2       0.16180    0.22650    0.72650   1.00
O2       0.22650    0.16180    0.72650   1.00
O2       0.22650    0.22650    0.66180   1.00
C1       0.25000    0.25000    0.85520   1.00
C1       0.25000    0.35520    0.75000   1.00
C1       0.14480    0.25000    0.75000   1.00
C1       0.35520    0.25000    0.75000   1.00
C1       0.25000    0.14480    0.75000   1.00
C1       0.25000    0.25000    0.64480   1.00
O1       0.25000    0.75000    0.25000   1.00
Zn1      0.21720    0.78280    0.28280   1.00
Zn1      0.28280    0.71720    0.28280   1.00
Zn1      0.28280    0.78280    0.21720   1.00
Zn1      0.21720    0.71720    0.21720   1.00
O2       0.22650    0.77350    0.33820   1.00
O2       0.22650    0.83820    0.27350   1.00
O2       0.16180    0.77350    0.27350   1.00
O2       0.27350    0.72650    0.33820   1.00
O2       0.33820    0.72650    0.27350   1.00
O2       0.27350    0.66180    0.27350   1.00
O2       0.27350    0.83820    0.22650   1.00
O2       0.33820    0.77350    0.22650   1.00
O2       0.27350    0.77350    0.16180   1.00
O2       0.16180    0.72650    0.22650   1.00
O2       0.22650    0.66180    0.22650   1.00
O2       0.22650    0.72650    0.16180   1.00
C1       0.25000    0.75000    0.35520   1.00
C1       0.25000    0.85520    0.25000   1.00
C1       0.14480    0.75000    0.25000   1.00
C1       0.35520    0.75000    0.25000   1.00
C1       0.25000    0.64480    0.25000   1.00
C1       0.25000    0.75000    0.14480   1.00
O1       0.75000    0.25000    0.25000   1.00
Zn1      0.71720    0.28280    0.28280   1.00
Zn1      0.78280    0.21720    0.28280   1.00
Zn1      0.78280    0.28280    0.21720   1.00
Zn1      0.71720    0.21720    0.21720   1.00
O2       0.72650    0.27350    0.33820   1.00
O2       0.72650    0.33820    0.27350   1.00
O2       0.66180    0.27350    0.27350   1.00
O2       0.77350    0.22650    0.33820   1.00
O2       0.83820    0.22650    0.27350   1.00
O2       0.77350    0.16180    0.27350   1.00
O2       0.77350    0.33820    0.22650   1.00
O2       0.83820    0.27350    0.22650   1.00
O2       0.77350    0.27350    0.16180   1.00
O2       0.66180    0.22650    0.22650   1.00
O2       0.72650    0.16180    0.22650   1.00
O2       0.72650    0.22650    0.16180   1.00
C1       0.75000    0.25000    0.35520   1.00
C1       0.75000    0.35520    0.25000   1.00
C1       0.64480    0.25000    0.25000   1.00
C1       0.85520    0.25000    0.25000   1.00
C1       0.75000    0.14480    0.25000   1.00
C1       0.75000    0.25000    0.14480   1.00
O1       0.25000    0.25000    0.25000   1.00
Zn1      0.28280    0.21720    0.21720   1.00
Zn1      0.21720    0.28280    0.21720   1.00
Zn1      0.21720    0.21720    0.28280   1.00
Zn1      0.28280    0.28280    0.28280   1.00
O2       0.27350    0.22650    0.16180   1.00
O2       0.27350    0.16180    0.22650   1.00
O2       0.33820    0.22650    0.22650   1.00
O2       0.22650    0.27350    0.16180   1.00
O2       0.16180    0.27350    0.22650   1.00
O2       0.22650    0.33820    0.22650   1.00
O2       0.22650    0.16180    0.27350   1.00
O2       0.16180    0.22650    0.27350   1.00
O2       0.22650    0.22650    0.33820   1.00
O2       0.33820    0.27350    0.27350   1.00
O2       0.27350    0.33820    0.27350   1.00
O2       0.27350    0.27350    0.33820   1.00
C1       0.25000    0.25000    0.14480   1.00
C1       0.25000    0.14480    0.25000   1.00
C1       0.35520    0.25000    0.25000   1.00
C1       0.14480    0.25000    0.25000   1.00
C1       0.25000    0.35520    0.25000   1.00
C1       0.25000    0.25000    0.35520   1.00
O1       0.75000    0.75000    0.25000   1.00
Zn1      0.78280    0.71720    0.21720   1.00
Zn1      0.71720    0.78280    0.21720   1.00
Zn1      0.71720    0.71720    0.28280   1.00
Zn1      0.78280    0.78280    0.28280   1.00
O2       0.77350    0.72650    0.16180   1.00
O2       0.77350    0.66180    0.22650   1.00
O2       0.83820    0.72650    0.22650   1.00
O2       0.72650    0.77350    0.16180   1.00
O2       0.66180    0.77350    0.22650   1.00
O2       0.72650    0.83820    0.22650   1.00
O2       0.72650    0.66180    0.27350   1.00
O2       0.66180    0.72650    0.27350   1.00
O2       0.72650    0.72650    0.33820   1.00
O2       0.83820    0.77350    0.27350   1.00
O2       0.77350    0.83820    0.27350   1.00
O2       0.77350    0.77350    0.33820   1.00
C1       0.75000    0.75000    0.14480   1.00
C1       0.75000    0.64480    0.25000   1.00
C1       0.85520    0.75000    0.25000   1.00
C1       0.64480    0.75000    0.25000   1.00
C1       0.75000    0.85520    0.25000   1.00
C1       0.75000    0.75000    0.35520   1.00
O1       0.75000    0.25000    0.75000   1.00
Zn1      0.78280    0.21720    0.71720   1.00
Zn1      0.71720    0.28280    0.71720   1.00
Zn1      0.71720    0.21720    0.78280   1.00
Zn1      0.78280    0.28280    0.78280   1.00
O2       0.77350    0.22650    0.66180   1.00
O2       0.77350    0.16180    0.72650   1.00
O2       0.83820    0.22650    0.72650   1.00
O2       0.72650    0.27350    0.66180   1.00
O2       0.66180    0.27350    0.72650   1.00
O2       0.72650    0.33820    0.72650   1.00
O2       0.72650    0.16180    0.77350   1.00
O2       0.66180    0.22650    0.77350   1.00
O2       0.72650    0.22650    0.83820   1.00
O2       0.83820    0.27350    0.77350   1.00
O2       0.77350    0.33820    0.77350   1.00
O2       0.77350    0.27350    0.83820   1.00
C1       0.75000    0.25000    0.64480   1.00
C1       0.75000    0.14480    0.75000   1.00
C1       0.85520    0.25000    0.75000   1.00
C1       0.64480    0.25000    0.75000   1.00
C1       0.75000    0.35520    0.75000   1.00
C1       0.75000    0.25000    0.85520   1.00
O1       0.25000    0.75000    0.75000   1.00
Zn1      0.28280    0.71720    0.71720   1.00
Zn1      0.21720    0.78280    0.71720   1.00
Zn1      0.21720    0.71720    0.78280   1.00
Zn1      0.28280    0.78280    0.78280   1.00
O2       0.27350    0.72650    0.66180   1.00
O2       0.27350    0.66180    0.72650   1.00
O2       0.33820    0.72650    0.72650   1.00
O2       0.22650    0.77350    0.66180   1.00
O2       0.16180    0.77350    0.72650   1.00
O2       0.22650    0.83820    0.72650   1.00
O2       0.22650    0.66180    0.77350   1.00
O2       0.16180    0.72650    0.77350   1.00
O2       0.22650    0.72650    0.83820   1.00
O2       0.33820    0.77350    0.77350   1.00
O2       0.27350    0.83820    0.77350   1.00
O2       0.27350    0.77350    0.83820   1.00
C1       0.25000    0.75000    0.64480   1.00
C1       0.25000    0.64480    0.75000   1.00
C1       0.35520    0.75000    0.75000   1.00
C1       0.14480    0.75000    0.75000   1.00
C1       0.25000    0.85520    0.75000   1.00
C1       0.25000    0.75000    0.85520   1.00
C4       0.74883    0.75281    1.02084   1.00
C4       0.74951    0.75255    0.97912   1.00
C3       0.75471    0.78690    1.04364   1.00
C3       0.75963    0.78553    0.95616   1.00
C3       0.74253    0.71704    1.04123   1.00
C3       0.73947    0.71756    0.95886   1.00
C2       0.74895    0.75057    1.10512   1.00
C2       0.75105    0.74943    0.89488   1.00
C3       0.75500    0.78581    1.08462   1.00
C3       0.76004    0.78414    0.91519   1.00
C3       0.74219    0.71667    1.08258   1.00
C3       0.74168    0.71631    0.91762   1.00
H1       0.75883    0.81355    1.03115   1.00
H1       0.76725    0.81146    0.96852   1.00
C5       0.73643    0.68189    1.02020   1.00
C5       0.72762    0.68392    0.97980   1.00
H1       0.75969    0.81134    1.09955   1.00
H1       0.76726    0.80899    0.90010   1.00
H1       0.73656    0.69100    1.09680   1.00
H1       0.73683    0.69038    0.90368   1.00
O3       0.73688    0.64668    1.03961   1.00
O3       0.71052    0.65261    0.96099   1.00
Si1      0.77736    0.62170    1.04247   1.00
Si1      0.66362    0.65353    0.95279   1.00
C6       0.76043    0.58587    1.07538   1.00
C6       0.78635    0.60159    0.99598   1.00
C6       0.81649    0.64855    1.06253   1.00
C6       0.63717    0.69551    0.96693   1.00
C6       0.66058    0.64777    0.90198   1.00
C6       0.64351    0.61164    0.97477   1.00
C6       0.73776    0.60145    1.11194   1.00
H2       0.73869    0.57045    1.05791   1.00
C6       0.78851    0.55344    1.09147   1.00
H2       0.75705    0.60033    0.98358   1.00
C6       0.81133    0.62572    0.96634   1.00
C6       0.80261    0.55899    0.99336   1.00
H2       0.80308    0.66171    1.08831   1.00
C6       0.85254    0.62487    1.07772   1.00
C6       0.83501    0.68295    1.03849   1.00
C6       0.63894    0.70827    1.01071   1.00
C6       0.64079    0.73382    0.94225   1.00
H2       0.60703    0.68641    0.96212   1.00
H2       0.67173    0.67530    0.89051   1.00
C6       0.68721    0.61539    0.88378   1.00
C6       0.61905    0.64214    0.88393   1.00
H2       0.64922    0.58839    0.95375   1.00
C6       0.66315    0.59769    1.01336   1.00
C6       0.59846    0.61089    0.98244   1.00
H2       0.71312    0.61981    1.10346   1.00
H2       0.75680    0.61863    1.13090   1.00
H2       0.72575    0.57743    1.12917   1.00
H2       0.77235    0.52631    1.09608   1.00
H2       0.81252    0.54697    1.07178   1.00
H2       0.80117    0.56130    1.11964   1.00
H2       0.80779    0.61436    0.93672   1.00
H2       0.80250    0.65620    0.96532   1.00
H2       0.84233    0.62428    0.97352   1.00
H2       0.78374    0.53837    1.00862   1.00
H2       0.80404    0.54896    0.96308   1.00
H2       0.83202    0.55713    1.00550   1.00
H2       0.86388    0.60545    1.05514   1.00
H2       0.87637    0.64395    1.08708   1.00
H2       0.84512    0.60771    1.10332   1.00
H2       0.85812    0.67288    1.01902   1.00
H2       0.81411    0.69860    1.02068   1.00
H2       0.84808    0.70433    1.05828   1.00
H2       0.66485    0.72561    1.01688   1.00
H2       0.61368    0.72632    1.01809   1.00
H2       0.63867    0.68342    1.03048   1.00
H2       0.61877    0.75511    0.95125   1.00
H2       0.66908    0.74778    0.94574   1.00
H2       0.63599    0.72862    0.91122   1.00
H2       0.68835    0.61845    0.85202   1.00
H2       0.71721    0.61768    0.89435   1.00
H2       0.67657    0.58611    0.89035   1.00
H2       0.59864    0.66433    0.89416   1.00
H2       0.62031    0.64463    0.85212   1.00
H2       0.60714    0.61340    0.89085   1.00
H2       0.66073    0.61933    1.03656   1.00
H2       0.65048    0.57037    1.02381   1.00
H2       0.69395    0.59227    1.00834   1.00
H2       0.58881    0.58154    0.99044   1.00
H2       0.59035    0.63053    1.00622   1.00
H2       0.58194    0.61923    0.95657   1.00
C4       0.75281    1.02084    0.74883   1.00
C4       0.75255    0.97912    0.74951   1.00
C3       0.78690    1.04364    0.75471   1.00
C3       0.78553    0.95616    0.75963   1.00
C3       0.71704    1.04123    0.74253   1.00
C3       0.71756    0.95886    0.73947   1.00
C2       0.75057    1.10512    0.74895   1.00
C2       0.74943    0.89488    0.75105   1.00
C3       0.78581    1.08462    0.75500   1.00
C3       0.78414    0.91519    0.76004   1.00
C3       0.71667    1.08258    0.74219   1.00
C3       0.71631    0.91762    0.74168   1.00
H1       0.81355    1.03115    0.75883   1.00
H1       0.81146    0.96852    0.76725   1.00
C5       0.68189    1.02020    0.73643   1.00
C5       0.68392    0.97980    0.72762   1.00
H1       0.81134    1.09955    0.75969   1.00
H1       0.80899    0.90010    0.76726   1.00
H1       0.69100    1.09680    0.73656   1.00
H1       0.69038    0.90368    0.73683   1.00
O3       0.64668    1.03961    0.73688   1.00
O3       0.65261    0.96099    0.71052   1.00
Si1      0.62170    1.04247    0.77736   1.00
Si1      0.65353    0.95279    0.66362   1.00
C6       0.58587    1.07538    0.76043   1.00
C6       0.60159    0.99598    0.78635   1.00
C6       0.64855    1.06253    0.81649   1.00
C6       0.69551    0.96693    0.63717   1.00
C6       0.64777    0.90198    0.66058   1.00
C6       0.61164    0.97477    0.64351   1.00
C6       0.60145    1.11194    0.73776   1.00
H2       0.57045    1.05791    0.73869   1.00
C6       0.55344    1.09147    0.78851   1.00
H2       0.60033    0.98358    0.75705   1.00
C6       0.62572    0.96634    0.81133   1.00
C6       0.55899    0.99336    0.80261   1.00
H2       0.66171    1.08831    0.80308   1.00
C6       0.62487    1.07772    0.85254   1.00
C6       0.68295    1.03849    0.83501   1.00
C6       0.70827    1.01071    0.63894   1.00
C6       0.73382    0.94225    0.64079   1.00
H2       0.68641    0.96212    0.60703   1.00
H2       0.67530    0.89051    0.67173   1.00
C6       0.61539    0.88378    0.68721   1.00
C6       0.64214    0.88393    0.61905   1.00
H2       0.58839    0.95375    0.64922   1.00
C6       0.59769    1.01336    0.66315   1.00
C6       0.61089    0.98244    0.59846   1.00
H2       0.61981    1.10346    0.71312   1.00
H2       0.61863    1.13090    0.75680   1.00
H2       0.57743    1.12917    0.72575   1.00
H2       0.52631    1.09608    0.77235   1.00
H2       0.54697    1.07178    0.81252   1.00
H2       0.56130    1.11964    0.80117   1.00
H2       0.61436    0.93672    0.80779   1.00
H2       0.65620    0.96532    0.80250   1.00
H2       0.62428    0.97352    0.84233   1.00
H2       0.53837    1.00862    0.78374   1.00
H2       0.54896    0.96308    0.80404   1.00
H2       0.55713    1.00550    0.83202   1.00
H2       0.60545    1.05514    0.86388   1.00
H2       0.64395    1.08708    0.87637   1.00
H2       0.60771    1.10332    0.84512   1.00
H2       0.67288    1.01902    0.85812   1.00
H2       0.69860    1.02068    0.81411   1.00
H2       0.70433    1.05828    0.84808   1.00
H2       0.72561    1.01688    0.66485   1.00
H2       0.72632    1.01809    0.61368   1.00
H2       0.68342    1.03048    0.63867   1.00
H2       0.75511    0.95125    0.61877   1.00
H2       0.74778    0.94574    0.66908   1.00
H2       0.72862    0.91122    0.63599   1.00
H2       0.61845    0.85202    0.68835   1.00
H2       0.61768    0.89435    0.71721   1.00
H2       0.58611    0.89035    0.67657   1.00
H2       0.66433    0.89416    0.59864   1.00
H2       0.64463    0.85212    0.62031   1.00
H2       0.61340    0.89085    0.60714   1.00
H2       0.61933    1.03656    0.66073   1.00
H2       0.57037    1.02381    0.65048   1.00
H2       0.59227    1.00834    0.69395   1.00
H2       0.58154    0.99044    0.58881   1.00
H2       0.63053    1.00622    0.59035   1.00
H2       0.61923    0.95657    0.58194   1.00
C4       0.47916    0.74883    0.74719   1.00
C4       0.52088    0.74951    0.74745   1.00
C3       0.45636    0.75471    0.71310   1.00
C3       0.54384    0.75963    0.71447   1.00
C3       0.45877    0.74253    0.78296   1.00
C3       0.54114    0.73947    0.78244   1.00
C2       0.39488    0.74895    0.74943   1.00
C2       0.60512    0.75105    0.75057   1.00
C3       0.41538    0.75500    0.71419   1.00
C3       0.58481    0.76004    0.71586   1.00
C3       0.41742    0.74219    0.78333   1.00
C3       0.58238    0.74168    0.78369   1.00
H1       0.46885    0.75883    0.68645   1.00
H1       0.53148    0.76725    0.68854   1.00
C5       0.47980    0.73643    0.81811   1.00
C5       0.52020    0.72762    0.81608   1.00
H1       0.40045    0.75969    0.68866   1.00
H1       0.59990    0.76726    0.69101   1.00
H1       0.40320    0.73656    0.80900   1.00
H1       0.59632    0.73683    0.80962   1.00
O3       0.46039    0.73688    0.85332   1.00
O3       0.53901    0.71052    0.84739   1.00
Si1      0.45753    0.77736    0.87830   1.00
Si1      0.54721    0.66362    0.84647   1.00
C6       0.42462    0.76043    0.91413   1.00
C6       0.50402    0.78635    0.89841   1.00
C6       0.43747    0.81649    0.85145   1.00
C6       0.53307    0.63717    0.80449   1.00
C6       0.59802    0.66058    0.85223   1.00
C6       0.52523    0.64351    0.88836   1.00
C6       0.38806    0.73776    0.89855   1.00
H2       0.44209    0.73869    0.92955   1.00
C6       0.40853    0.78851    0.94656   1.00
H2       0.51642    0.75705    0.89967   1.00
C6       0.53366    0.81133    0.87428   1.00
C6       0.50664    0.80261    0.94101   1.00
H2       0.41169    0.80308    0.83829   1.00
C6       0.42228    0.85254    0.87513   1.00
C6       0.46151    0.83501    0.81705   1.00
C6       0.48929    0.63894    0.79173   1.00
C6       0.55775    0.64079    0.76618   1.00
H2       0.53788    0.60703    0.81359   1.00
H2       0.60949    0.67173    0.82470   1.00
C6       0.61622    0.68721    0.88461   1.00
C6       0.61607    0.61905    0.85786   1.00
H2       0.54625    0.64922    0.91161   1.00
C6       0.48664    0.66315    0.90231   1.00
C6       0.51756    0.59846    0.88911   1.00
H2       0.39654    0.71312    0.88019   1.00
H2       0.36910    0.75680    0.88137   1.00
H2       0.37083    0.72575    0.92257   1.00
H2       0.40392    0.77235    0.97369   1.00
H2       0.42822    0.81252    0.95303   1.00
H2       0.38036    0.80117    0.93870   1.00
H2       0.56328    0.80779    0.88564   1.00
H2       0.53468    0.80250    0.84380   1.00
H2       0.52648    0.84233    0.87572   1.00
H2       0.49138    0.78374    0.96163   1.00
H2       0.53692    0.80404    0.95104   1.00
H2       0.49450    0.83202    0.94287   1.00
H2       0.44486    0.86388    0.89455   1.00
H2       0.41292    0.87637    0.85605   1.00
H2       0.39668    0.84512    0.89229   1.00
H2       0.48098    0.85812    0.82712   1.00
H2       0.47932    0.81411    0.80140   1.00
H2       0.44172    0.84808    0.79567   1.00
H2       0.48312    0.66485    0.77439   1.00
H2       0.48191    0.61368    0.77368   1.00
H2       0.46952    0.63867    0.81658   1.00
H2       0.54875    0.61877    0.74489   1.00
H2       0.55426    0.66908    0.75222   1.00
H2       0.58878    0.63599    0.77138   1.00
H2       0.64798    0.68835    0.88155   1.00
H2       0.60565    0.71721    0.88232   1.00
H2       0.60965    0.67657    0.91389   1.00
H2       0.60584    0.59864    0.83567   1.00
H2       0.64788    0.62031    0.85537   1.00
H2       0.60915    0.60714    0.88660   1.00
H2       0.46344    0.66073    0.88067   1.00
H2       0.47619    0.65048    0.92963   1.00
H2       0.49166    0.69395    0.90773   1.00
H2       0.50956    0.58881    0.91846   1.00
H2       0.49378    0.59035    0.86947   1.00
H2       0.54343    0.58194    0.88077   1.00
C4       1.02084    0.74883    0.75281   1.00
C4       0.97912    0.74951    0.75255   1.00
C3       1.04364    0.75471    0.78690   1.00
C3       0.95616    0.75963    0.78553   1.00
C3       1.04123    0.74253    0.71704   1.00
C3       0.95886    0.73947    0.71756   1.00
C2       1.10512    0.74895    0.75057   1.00
C2       0.89488    0.75105    0.74943   1.00
C3       1.08462    0.75500    0.78581   1.00
C3       0.91519    0.76004    0.78414   1.00
C3       1.08258    0.74219    0.71667   1.00
C3       0.91762    0.74168    0.71631   1.00
H1       1.03115    0.75883    0.81355   1.00
H1       0.96852    0.76725    0.81146   1.00
C5       1.02020    0.73643    0.68189   1.00
C5       0.97980    0.72762    0.68392   1.00
H1       1.09955    0.75969    0.81134   1.00
H1       0.90010    0.76726    0.80899   1.00
H1       1.09680    0.73656    0.69100   1.00
H1       0.90368    0.73683    0.69038   1.00
O3       1.03961    0.73688    0.64668   1.00
O3       0.96099    0.71052    0.65261   1.00
Si1      1.04247    0.77736    0.62170   1.00
Si1      0.95279    0.66362    0.65353   1.00
C6       1.07538    0.76043    0.58587   1.00
C6       0.99598    0.78635    0.60159   1.00
C6       1.06253    0.81649    0.64855   1.00
C6       0.96693    0.63717    0.69551   1.00
C6       0.90198    0.66058    0.64777   1.00
C6       0.97477    0.64351    0.61164   1.00
C6       1.11194    0.73776    0.60145   1.00
H2       1.05791    0.73869    0.57045   1.00
C6       1.09147    0.78851    0.55344   1.00
H2       0.98358    0.75705    0.60033   1.00
C6       0.96634    0.81133    0.62572   1.00
C6       0.99336    0.80261    0.55899   1.00
H2       1.08831    0.80308    0.66171   1.00
C6       1.07772    0.85254    0.62487   1.00
C6       1.03849    0.83501    0.68295   1.00
C6       1.01071    0.63894    0.70827   1.00
C6       0.94225    0.64079    0.73382   1.00
H2       0.96212    0.60703    0.68641   1.00
H2       0.89051    0.67173    0.67530   1.00
C6       0.88378    0.68721    0.61539   1.00
C6       0.88393    0.61905    0.64214   1.00
H2       0.95375    0.64922    0.58839   1.00
C6       1.01336    0.66315    0.59769   1.00
C6       0.98244    0.59846    0.61089   1.00
H2       1.10346    0.71312    0.61981   1.00
H2       1.13090    0.75680    0.61863   1.00
H2       1.12917    0.72575    0.57743   1.00
H2       1.09608    0.77235    0.52631   1.00
H2       1.07178    0.81252    0.54697   1.00
H2       1.11964    0.80117    0.56130   1.00
H2       0.93672    0.80779    0.61436   1.00
H2       0.96532    0.80250    0.65620   1.00
H2       0.97352    0.84233    0.62428   1.00
H2       1.00862    0.78374    0.53837   1.00
H2       0.96308    0.80404    0.54896   1.00
H2       1.00550    0.83202    0.55713   1.00
H2       1.05514    0.86388    0.60545   1.00
H2       1.08708    0.87637    0.64395   1.00
H2       1.10332    0.84512    0.60771   1.00
H2       1.01902    0.85812    0.67288   1.00
H2       1.02068    0.81411    0.69860   1.00
H2       1.05828    0.84808    0.70433   1.00
H2       1.01688    0.66485    0.72561   1.00
H2       1.01809    0.61368    0.72632   1.00
H2       1.03048    0.63867    0.68342   1.00
H2       0.95125    0.61877    0.75511   1.00
H2       0.94574    0.66908    0.74778   1.00
H2       0.91122    0.63599    0.72862   1.00
H2       0.85202    0.68835    0.61845   1.00
H2       0.89435    0.71721    0.61768   1.00
H2       0.89035    0.67657    0.58611   1.00
H2       0.89416    0.59864    0.66433   1.00
H2       0.85212    0.62031    0.64463   1.00
H2       0.89085    0.60714    0.61340   1.00
H2       1.03656    0.66073    0.61933   1.00
H2       1.02381    0.65048    0.57037   1.00
H2       1.00834    0.69395    0.59227   1.00
H2       0.99044    0.58881    0.58154   1.00
H2       1.00622    0.59035    0.63053   1.00
H2       0.95657    0.58194    0.61923   1.00
C4       0.74719    0.47916    0.74883   1.00
C4       0.74745    0.52088    0.74951   1.00
C3       0.71310    0.45636    0.75471   1.00
C3       0.71447    0.54384    0.75963   1.00
C3       0.78296    0.45877    0.74253   1.00
C3       0.78244    0.54114    0.73947   1.00
C2       0.74943    0.39488    0.74895   1.00
C2       0.75057    0.60512    0.75105   1.00
C3       0.71419    0.41538    0.75500   1.00
C3       0.71586    0.58481    0.76004   1.00
C3       0.78333    0.41742    0.74219   1.00
C3       0.78369    0.58238    0.74168   1.00
H1       0.68645    0.46885    0.75883   1.00
H1       0.68854    0.53148    0.76725   1.00
C5       0.81811    0.47980    0.73643   1.00
C5       0.81608    0.52020    0.72762   1.00
H1       0.68866    0.40045    0.75969   1.00
H1       0.69101    0.59990    0.76726   1.00
H1       0.80900    0.40320    0.73656   1.00
H1       0.80962    0.59632    0.73683   1.00
O3       0.85332    0.46039    0.73688   1.00
O3       0.84739    0.53901    0.71052   1.00
Si1      0.87830    0.45753    0.77736   1.00
Si1      0.84647    0.54721    0.66362   1.00
C6       0.91413    0.42462    0.76043   1.00
C6       0.89841    0.50402    0.78635   1.00
C6       0.85145    0.43747    0.81649   1.00
C6       0.80449    0.53307    0.63717   1.00
C6       0.85223    0.59802    0.66058   1.00
C6       0.88836    0.52523    0.64351   1.00
C6       0.89855    0.38806    0.73776   1.00
H2       0.92955    0.44209    0.73869   1.00
C6       0.94656    0.40853    0.78851   1.00
H2       0.89967    0.51642    0.75705   1.00
C6       0.87428    0.53366    0.81133   1.00
C6       0.94101    0.50664    0.80261   1.00
H2       0.83829    0.41169    0.80308   1.00
C6       0.87513    0.42228    0.85254   1.00
C6       0.81705    0.46151    0.83501   1.00
C6       0.79173    0.48929    0.63894   1.00
C6       0.76618    0.55775    0.64079   1.00
H2       0.81359    0.53788    0.60703   1.00
H2       0.82470    0.60949    0.67173   1.00
C6       0.88461    0.61622    0.68721   1.00
C6       0.85786    0.61607    0.61905   1.00
H2       0.91161    0.54625    0.64922   1.00
C6       0.90231    0.48664    0.66315   1.00
C6       0.88911    0.51756    0.59846   1.00
H2       0.88019    0.39654    0.71312   1.00
H2       0.88137    0.36910    0.75680   1.00
H2       0.92257    0.37083    0.72575   1.00
H2       0.97369    0.40392    0.77235   1.00
H2       0.95303    0.42822    0.81252   1.00
H2       0.93870    0.38036    0.80117   1.00
H2       0.88564    0.56328    0.80779   1.00
H2       0.84380    0.53468    0.80250   1.00
H2       0.87572    0.52648    0.84233   1.00
H2       0.96163    0.49138    0.78374   1.00
H2       0.95104    0.53692    0.80404   1.00
H2       0.94287    0.49450    0.83202   1.00
H2       0.89455    0.44486    0.86388   1.00
H2       0.85605    0.41292    0.87637   1.00
H2       0.89229    0.39668    0.84512   1.00
H2       0.82712    0.48098    0.85812   1.00
H2       0.80140    0.47932    0.81411   1.00
H2       0.79567    0.44172    0.84808   1.00
H2       0.77439    0.48312    0.66485   1.00
H2       0.77368    0.48191    0.61368   1.00
H2       0.81658    0.46952    0.63867   1.00
H2       0.74489    0.54875    0.61877   1.00
H2       0.75222    0.55426    0.66908   1.00
H2       0.77138    0.58878    0.63599   1.00
H2       0.88155    0.64798    0.68835   1.00
H2       0.88232    0.60565    0.71721   1.00
H2       0.91389    0.60965    0.67657   1.00
H2       0.83567    0.60584    0.59864   1.00
H2       0.85537    0.64788    0.62031   1.00
H2       0.88660    0.60915    0.60714   1.00
H2       0.88067    0.46344    0.66073   1.00
H2       0.92963    0.47619    0.65048   1.00
H2       0.90773    0.49166    0.69395   1.00
H2       0.91846    0.50956    0.58881   1.00
H2       0.86947    0.49378    0.59035   1.00
H2       0.88077    0.54343    0.58194   1.00
C4       0.74883    0.74719    0.47916   1.00
C4       0.74951    0.74745    0.52088   1.00
C3       0.75471    0.71310    0.45636   1.00
C3       0.75963    0.71447    0.54384   1.00
C3       0.74253    0.78296    0.45877   1.00
C3       0.73947    0.78244    0.54114   1.00
C2       0.74895    0.74943    0.39488   1.00
C2       0.75105    0.75057    0.60512   1.00
C3       0.75500    0.71419    0.41538   1.00
C3       0.76004    0.71586    0.58481   1.00
C3       0.74219    0.78333    0.41742   1.00
C3       0.74168    0.78369    0.58238   1.00
H1       0.75883    0.68645    0.46885   1.00
H1       0.76725    0.68854    0.53148   1.00
C5       0.73643    0.81811    0.47980   1.00
C5       0.72762    0.81608    0.52020   1.00
H1       0.75969    0.68866    0.40045   1.00
H1       0.76726    0.69101    0.59990   1.00
H1       0.73656    0.80900    0.40320   1.00
H1       0.73683    0.80962    0.59632   1.00
O3       0.73688    0.85332    0.46039   1.00
O3       0.71052    0.84739    0.53901   1.00
Si1      0.77736    0.87830    0.45753   1.00
Si1      0.66362    0.84647    0.54721   1.00
C6       0.76043    0.91413    0.42462   1.00
C6       0.78635    0.89841    0.50402   1.00
C6       0.81649    0.85145    0.43747   1.00
C6       0.63717    0.80449    0.53307   1.00
C6       0.66058    0.85223    0.59802   1.00
C6       0.64351    0.88836    0.52523   1.00
C6       0.73776    0.89855    0.38806   1.00
H2       0.73869    0.92955    0.44209   1.00
C6       0.78851    0.94656    0.40853   1.00
H2       0.75705    0.89967    0.51642   1.00
C6       0.81133    0.87428    0.53366   1.00
C6       0.80261    0.94101    0.50664   1.00
H2       0.80308    0.83829    0.41169   1.00
C6       0.85254    0.87513    0.42228   1.00
C6       0.83501    0.81705    0.46151   1.00
C6       0.63894    0.79173    0.48929   1.00
C6       0.64079    0.76618    0.55775   1.00
H2       0.60703    0.81359    0.53788   1.00
H2       0.67173    0.82470    0.60949   1.00
C6       0.68721    0.88461    0.61622   1.00
C6       0.61905    0.85786    0.61607   1.00
H2       0.64922    0.91161    0.54625   1.00
C6       0.66315    0.90231    0.48664   1.00
C6       0.59846    0.88911    0.51756   1.00
H2       0.71312    0.88019    0.39654   1.00
H2       0.75680    0.88137    0.36910   1.00
H2       0.72575    0.92257    0.37083   1.00
H2       0.77235    0.97369    0.40392   1.00
H2       0.81252    0.95303    0.42822   1.00
H2       0.80117    0.93870    0.38036   1.00
H2       0.80779    0.88564    0.56328   1.00
H2       0.80250    0.84380    0.53468   1.00
H2       0.84233    0.87572    0.52648   1.00
H2       0.78374    0.96163    0.49138   1.00
H2       0.80404    0.95104    0.53692   1.00
H2       0.83202    0.94287    0.49450   1.00
H2       0.86388    0.89455    0.44486   1.00
H2       0.87637    0.85605    0.41292   1.00
H2       0.84512    0.89229    0.39668   1.00
H2       0.85812    0.82712    0.48098   1.00
H2       0.81411    0.80140    0.47932   1.00
H2       0.84808    0.79567    0.44172   1.00
H2       0.66485    0.77439    0.48312   1.00
H2       0.61368    0.77368    0.48191   1.00
H2       0.63867    0.81658    0.46952   1.00
H2       0.61877    0.74489    0.54875   1.00
H2       0.66908    0.75222    0.55426   1.00
H2       0.63599    0.77138    0.58878   1.00
H2       0.68835    0.88155    0.64798   1.00
H2       0.71721    0.88232    0.60565   1.00
H2       0.67657    0.91389    0.60965   1.00
H2       0.59864    0.83567    0.60584   1.00
H2       0.62031    0.85537    0.64788   1.00
H2       0.60714    0.88660    0.60915   1.00
H2       0.66073    0.88067    0.46344   1.00
H2       0.65048    0.92963    0.47619   1.00
H2       0.69395    0.90773    0.49166   1.00
H2       0.58881    0.91846    0.50956   1.00
H2       0.59035    0.86947    0.49378   1.00
H2       0.58194    0.88077    0.54343   1.00
C4       0.24883    0.25281    1.02084   1.00
C4       0.24951    0.25255    0.97912   1.00
C3       0.25471    0.28690    1.04364   1.00
C3       0.25963    0.28553    0.95616   1.00
C3       0.24253    0.21704    1.04123   1.00
C3       0.23947    0.21756    0.95886   1.00
C2       0.24895    0.25057    1.10512   1.00
C2       0.25105    0.24943    0.89488   1.00
C3       0.25500    0.28581    1.08462   1.00
C3       0.26004    0.28414    0.91519   1.00
C3       0.24219    0.21667    1.08258   1.00
C3       0.24168    0.21631    0.91762   1.00
H1       0.25883    0.31355    1.03115   1.00
H1       0.26725    0.31146    0.96852   1.00
C5       0.23643    0.18189    1.02020   1.00
C5       0.22762    0.18392    0.97980   1.00
H1       0.25969    0.31134    1.09955   1.00
H1       0.26726    0.30899    0.90010   1.00
H1       0.23656    0.19100    1.09680   1.00
H1       0.23683    0.19038    0.90368   1.00
O3       0.23688    0.14668    1.03961   1.00
O3       0.21052    0.15261    0.96099   1.00
Si1      0.27736    0.12170    1.04247   1.00
Si1      0.16362    0.15353    0.95279   1.00
C6       0.26043    0.08587    1.07538   1.00
C6       0.28635    0.10159    0.99598   1.00
C6       0.31649    0.14855    1.06253   1.00
C6       0.13717    0.19551    0.96693   1.00
C6       0.16058    0.14777    0.90198   1.00
C6       0.14351    0.11164    0.97477   1.00
C6       0.23776    0.10145    1.11194   1.00
H2       0.23869    0.07045    1.05791   1.00
C6       0.28851    0.05344    1.09147   1.00
H2       0.25705    0.10033    0.98358   1.00
C6       0.31133    0.12572    0.96634   1.00
C6       0.30261    0.05899    0.99336   1.00
H2       0.30308    0.16171    1.08831   1.00
C6       0.35254    0.12487    1.07772   1.00
C6       0.33501    0.18295    1.03849   1.00
C6       0.13894    0.20827    1.01071   1.00
C6       0.14079    0.23382    0.94225   1.00
H2       0.10703    0.18641    0.96212   1.00
H2       0.17173    0.17530    0.89051   1.00
C6       0.18721    0.11539    0.88378   1.00
C6       0.11905    0.14214    0.88393   1.00
H2       0.14922    0.08839    0.95375   1.00
C6       0.16315    0.09769    1.01336   1.00
C6       0.09846    0.11089    0.98244   1.00
H2       0.21312    0.11981    1.10346   1.00
H2       0.25680    0.11863    1.13090   1.00
H2       0.22575    0.07743    1.12917   1.00
H2       0.27235    0.02631    1.09608   1.00
H2       0.31252    0.04697    1.07178   1.00
H2       0.30117    0.06130    1.11964   1.00
H2       0.30779    0.11436    0.93672   1.00
H2       0.30250    0.15620    0.96532   1.00
H2       0.34233    0.12428    0.97352   1.00
H2       0.28374    0.03837    1.00862   1.00
H2       0.30404    0.04896    0.96308   1.00
H2       0.33202    0.05713    1.00550   1.00
H2       0.36388    0.10545    1.05514   1.00
H2       0.37637    0.14395    1.08708   1.00
H2       0.34512    0.10771    1.10332   1.00
H2       0.35812    0.17288    1.01902   1.00
H2       0.31411    0.19860    1.02068   1.00
H2       0.34808    0.20433    1.05828   1.00
H2       0.16485    0.22561    1.01688   1.00
H2       0.11368    0.22632    1.01809   1.00
H2       0.13867    0.18342    1.03048   1.00
H2       0.11877    0.25511    0.95125   1.00
H2       0.16908    0.24778    0.94574   1.00
H2       0.13599    0.22862    0.91122   1.00
H2       0.18835    0.11845    0.85202   1.00
H2       0.21721    0.11768    0.89435   1.00
H2       0.17657    0.08611    0.89035   1.00
H2       0.09864    0.16433    0.89416   1.00
H2       0.12031    0.14463    0.85212   1.00
H2       0.10714    0.11340    0.89085   1.00
H2       0.16073    0.11933    1.03656   1.00
H2       0.15048    0.07037    1.02381   1.00
H2       0.19395    0.09227    1.00834   1.00
H2       0.08881    0.08154    0.99044   1.00
H2       0.09035    0.13053    1.00622   1.00
H2       0.08194    0.11923    0.95657   1.00
C4       0.25281    0.52084    0.74883   1.00
C4       0.25255    0.47912    0.74951   1.00
C3       0.28690    0.54364    0.75471   1.00
C3       0.28553    0.45616    0.75963   1.00
C3       0.21704    0.54123    0.74253   1.00
C3       0.21756    0.45886    0.73947   1.00
C2       0.25057    0.60512    0.74895   1.00
C2       0.24943    0.39488    0.75105   1.00
C3       0.28581    0.58462    0.75500   1.00
C3       0.28414    0.41519    0.76004   1.00
C3       0.21667    0.58258    0.74219   1.00
C3       0.21631    0.41762    0.74168   1.00
H1       0.31355    0.53115    0.75883   1.00
H1       0.31146    0.46852    0.76725   1.00
C5       0.18189    0.52020    0.73643   1.00
C5       0.18392    0.47980    0.72762   1.00
H1       0.31134    0.59955    0.75969   1.00
H1       0.30899    0.40010    0.76726   1.00
H1       0.19100    0.59680    0.73656   1.00
H1       0.19038    0.40368    0.73683   1.00
O3       0.14668    0.53961    0.73688   1.00
O3       0.15261    0.46099    0.71052   1.00
Si1      0.12170    0.54247    0.77736   1.00
Si1      0.15353    0.45279    0.66362   1.00
C6       0.08587    0.57538    0.76043   1.00
C6       0.10159    0.49598    0.78635   1.00
C6       0.14855    0.56253    0.81649   1.00
C6       0.19551    0.46693    0.63717   1.00
C6       0.14777    0.40198    0.66058   1.00
C6       0.11164    0.47477    0.64351   1.00
C6       0.10145    0.61194    0.73776   1.00
H2       0.07045    0.55791    0.73869   1.00
C6       0.05344    0.59147    0.78851   1.00
H2       0.10033    0.48358    0.75705   1.00
C6       0.12572    0.46634    0.81133   1.00
C6       0.05899    0.49336    0.80261   1.00
H2       0.16171    0.58831    0.80308   1.00
C6       0.12487    0.57772    0.85254   1.00
C6       0.18295    0.53849    0.83501   1.00
C6       0.20827    0.51071    0.63894   1.00
C6       0.23382    0.44225    0.64079   1.00
H2       0.18641    0.46212    0.60703   1.00
H2       0.17530    0.39051    0.67173   1.00
C6       0.11539    0.38378    0.68721   1.00
C6       0.14214    0.38393    0.61905   1.00
H2       0.08839    0.45375    0.64922   1.00
C6       0.09769    0.51336    0.66315   1.00
C6       0.11089    0.48244    0.59846   1.00
H2       0.11981    0.60346    0.71312   1.00
H2       0.11863    0.63090    0.75680   1.00
H2       0.07743    0.62917    0.72575   1.00
H2       0.02631    0.59608    0.77235   1.00
H2       0.04697    0.57178    0.81252   1.00
H2       0.06130    0.61964    0.80117   1.00
H2       0.11436    0.43672    0.80779   1.00
H2       0.15620    0.46532    0.80250   1.00
H2       0.12428    0.47352    0.84233   1.00
H2       0.03837    0.50862    0.78374   1.00
H2       0.04896    0.46308    0.80404   1.00
H2       0.05713    0.50550    0.83202   1.00
H2       0.10545    0.55514    0.86388   1.00
H2       0.14395    0.58708    0.87637   1.00
H2       0.10771    0.60332    0.84512   1.00
H2       0.17288    0.51902    0.85812   1.00
H2       0.19860    0.52068    0.81411   1.00
H2       0.20433    0.55828    0.84808   1.00
H2       0.22561    0.51688    0.66485   1.00
H2       0.22632    0.51809    0.61368   1.00
H2       0.18342    0.53048    0.63867   1.00
H2       0.25511    0.45125    0.61877   1.00
H2       0.24778    0.44574    0.66908   1.00
H2       0.22862    0.41122    0.63599   1.00
H2       0.11845    0.35202    0.68835   1.00
H2       0.11768    0.39435    0.71721   1.00
H2       0.08611    0.39035    0.67657   1.00
H2       0.16433    0.39416    0.59864   1.00
H2       0.14463    0.35212    0.62031   1.00
H2       0.11340    0.39085    0.60714   1.00
H2       0.11933    0.53656    0.66073   1.00
H2       0.07037    0.52381    0.65048   1.00
H2       0.09227    0.50834    0.69395   1.00
H2       0.08154    0.49044    0.58881   1.00
H2       0.13053    0.50622    0.59035   1.00
H2       0.11923    0.45657    0.58194   1.00
C4       -0.02084   0.24883    0.74719   1.00
C4       0.02088    0.24951    0.74745   1.00
C3       -0.04364   0.25471    0.71310   1.00
C3       0.04384    0.25963    0.71447   1.00
C3       -0.04123   0.24253    0.78296   1.00
C3       0.04114    0.23947    0.78244   1.00
C2       -0.10512   0.24895    0.74943   1.00
C2       0.10512    0.25105    0.75057   1.00
C3       -0.08462   0.25500    0.71419   1.00
C3       0.08481    0.26004    0.71586   1.00
C3       -0.08258   0.24219    0.78333   1.00
C3       0.08238    0.24168    0.78369   1.00
H1       -0.03115   0.25883    0.68645   1.00
H1       0.03148    0.26725    0.68854   1.00
C5       -0.02020   0.23643    0.81811   1.00
C5       0.02020    0.22762    0.81608   1.00
H1       -0.09955   0.25969    0.68866   1.00
H1       0.09990    0.26726    0.69101   1.00
H1       -0.09680   0.23656    0.80900   1.00
H1       0.09632    0.23683    0.80962   1.00
O3       -0.03961   0.23688    0.85332   1.00
O3       0.03901    0.21052    0.84739   1.00
Si1      -0.04247   0.27736    0.87830   1.00
Si1      0.04721    0.16362    0.84647   1.00
C6       -0.07538   0.26043    0.91413   1.00
C6       0.00402    0.28635    0.89841   1.00
C6       -0.06253   0.31649    0.85145   1.00
C6       0.03307    0.13717    0.80449   1.00
C6       0.09802    0.16058    0.85223   1.00
C6       0.02523    0.14351    0.88836   1.00
C6       -0.11194   0.23776    0.89855   1.00
H2       -0.05791   0.23869    0.92955   1.00
C6       -0.09147   0.28851    0.94656   1.00
H2       0.01642    0.25705    0.89967   1.00
C6       0.03366    0.31133    0.87428   1.00
C6       0.00664    0.30261    0.94101   1.00
H2       -0.08831   0.30308    0.83829   1.00
C6       -0.07772   0.35254    0.87513   1.00
C6       -0.03849   0.33501    0.81705   1.00
C6       -0.01071   0.13894    0.79173   1.00
C6       0.05775    0.14079    0.76618   1.00
H2       0.03788    0.10703    0.81359   1.00
H2       0.10949    0.17173    0.82470   1.00
C6       0.11622    0.18721    0.88461   1.00
C6       0.11607    0.11905    0.85786   1.00
H2       0.04625    0.14922    0.91161   1.00
C6       -0.01336   0.16315    0.90231   1.00
C6       0.01756    0.09846    0.88911   1.00
H2       -0.10346   0.21312    0.88019   1.00
H2       -0.13090   0.25680    0.88137   1.00
H2       -0.12917   0.22575    0.92257   1.00
H2       -0.09608   0.27235    0.97369   1.00
H2       -0.07178   0.31252    0.95303   1.00
H2       -0.11964   0.30117    0.93870   1.00
H2       0.06328    0.30779    0.88564   1.00
H2       0.03468    0.30250    0.84380   1.00
H2       0.02648    0.34233    0.87572   1.00
H2       -0.00862   0.28374    0.96163   1.00
H2       0.03692    0.30404    0.95104   1.00
H2       -0.00550   0.33202    0.94287   1.00
H2       -0.05514   0.36388    0.89455   1.00
H2       -0.08708   0.37637    0.85605   1.00
H2       -0.10332   0.34512    0.89229   1.00
H2       -0.01902   0.35812    0.82712   1.00
H2       -0.02068   0.31411    0.80140   1.00
H2       -0.05828   0.34808    0.79567   1.00
H2       -0.01688   0.16485    0.77439   1.00
H2       -0.01809   0.11368    0.77368   1.00
H2       -0.03048   0.13867    0.81658   1.00
H2       0.04875    0.11877    0.74489   1.00
H2       0.05426    0.16908    0.75222   1.00
H2       0.08878    0.13599    0.77138   1.00
H2       0.14798    0.18835    0.88155   1.00
H2       0.10565    0.21721    0.88232   1.00
H2       0.10965    0.17657    0.91389   1.00
H2       0.10584    0.09864    0.83567   1.00
H2       0.14788    0.12031    0.85537   1.00
H2       0.10915    0.10714    0.88660   1.00
H2       -0.03656   0.16073    0.88067   1.00
H2       -0.02381   0.15048    0.92963   1.00
H2       -0.00834   0.19395    0.90773   1.00
H2       0.00956    0.08881    0.91846   1.00
H2       -0.00622   0.09035    0.86947   1.00
H2       0.04343    0.08194    0.88077   1.00
C4       0.52084    0.24883    0.75281   1.00
C4       0.47912    0.24951    0.75255   1.00
C3       0.54364    0.25471    0.78690   1.00
C3       0.45616    0.25963    0.78553   1.00
C3       0.54123    0.24253    0.71704   1.00
C3       0.45886    0.23947    0.71756   1.00
C2       0.60512    0.24895    0.75057   1.00
C2       0.39488    0.25105    0.74943   1.00
C3       0.58462    0.25500    0.78581   1.00
C3       0.41519    0.26004    0.78414   1.00
C3       0.58258    0.24219    0.71667   1.00
C3       0.41762    0.24168    0.71631   1.00
H1       0.53115    0.25883    0.81355   1.00
H1       0.46852    0.26725    0.81146   1.00
C5       0.52020    0.23643    0.68189   1.00
C5       0.47980    0.22762    0.68392   1.00
H1       0.59955    0.25969    0.81134   1.00
H1       0.40010    0.26726    0.80899   1.00
H1       0.59680    0.23656    0.69100   1.00
H1       0.40368    0.23683    0.69038   1.00
O3       0.53961    0.23688    0.64668   1.00
O3       0.46099    0.21052    0.65261   1.00
Si1      0.54247    0.27736    0.62170   1.00
Si1      0.45279    0.16362    0.65353   1.00
C6       0.57538    0.26043    0.58587   1.00
C6       0.49598    0.28635    0.60159   1.00
C6       0.56253    0.31649    0.64855   1.00
C6       0.46693    0.13717    0.69551   1.00
C6       0.40198    0.16058    0.64777   1.00
C6       0.47477    0.14351    0.61164   1.00
C6       0.61194    0.23776    0.60145   1.00
H2       0.55791    0.23869    0.57045   1.00
C6       0.59147    0.28851    0.55344   1.00
H2       0.48358    0.25705    0.60033   1.00
C6       0.46634    0.31133    0.62572   1.00
C6       0.49336    0.30261    0.55899   1.00
H2       0.58831    0.30308    0.66171   1.00
C6       0.57772    0.35254    0.62487   1.00
C6       0.53849    0.33501    0.68295   1.00
C6       0.51071    0.13894    0.70827   1.00
C6       0.44225    0.14079    0.73382   1.00
H2       0.46212    0.10703    0.68641   1.00
H2       0.39051    0.17173    0.67530   1.00
C6       0.38378    0.18721    0.61539   1.00
C6       0.38393    0.11905    0.64214   1.00
H2       0.45375    0.14922    0.58839   1.00
C6       0.51336    0.16315    0.59769   1.00
C6       0.48244    0.09846    0.61089   1.00
H2       0.60346    0.21312    0.61981   1.00
H2       0.63090    0.25680    0.61863   1.00
H2       0.62917    0.22575    0.57743   1.00
H2       0.59608    0.27235    0.52631   1.00
H2       0.57178    0.31252    0.54697   1.00
H2       0.61964    0.30117    0.56130   1.00
H2       0.43672    0.30779    0.61436   1.00
H2       0.46532    0.30250    0.65620   1.00
H2       0.47352    0.34233    0.62428   1.00
H2       0.50862    0.28374    0.53837   1.00
H2       0.46308    0.30404    0.54896   1.00
H2       0.50550    0.33202    0.55713   1.00
H2       0.55514    0.36388    0.60545   1.00
H2       0.58708    0.37637    0.64395   1.00
H2       0.60332    0.34512    0.60771   1.00
H2       0.51902    0.35812    0.67288   1.00
H2       0.52068    0.31411    0.69860   1.00
H2       0.55828    0.34808    0.70433   1.00
H2       0.51688    0.16485    0.72561   1.00
H2       0.51809    0.11368    0.72632   1.00
H2       0.53048    0.13867    0.68342   1.00
H2       0.45125    0.11877    0.75511   1.00
H2       0.44574    0.16908    0.74778   1.00
H2       0.41122    0.13599    0.72862   1.00
H2       0.35202    0.18835    0.61845   1.00
H2       0.39435    0.21721    0.61768   1.00
H2       0.39035    0.17657    0.58611   1.00
H2       0.39416    0.09864    0.66433   1.00
H2       0.35212    0.12031    0.64463   1.00
H2       0.39085    0.10714    0.61340   1.00
H2       0.53656    0.16073    0.61933   1.00
H2       0.52381    0.15048    0.57037   1.00
H2       0.50834    0.19395    0.59227   1.00
H2       0.49044    0.08881    0.58154   1.00
H2       0.50622    0.09035    0.63053   1.00
H2       0.45657    0.08194    0.61923   1.00
C4       0.24719    -0.02084   0.74883   1.00
C4       0.24745    0.02088    0.74951   1.00
C3       0.21310    -0.04364   0.75471   1.00
C3       0.21447    0.04384    0.75963   1.00
C3       0.28296    -0.04123   0.74253   1.00
C3       0.28244    0.04114    0.73947   1.00
C2       0.24943    -0.10512   0.74895   1.00
C2       0.25057    0.10512    0.75105   1.00
C3       0.21419    -0.08462   0.75500   1.00
C3       0.21586    0.08481    0.76004   1.00
C3       0.28333    -0.08258   0.74219   1.00
C3       0.28369    0.08238    0.74168   1.00
H1       0.18645    -0.03115   0.75883   1.00
H1       0.18854    0.03148    0.76725   1.00
C5       0.31811    -0.02020   0.73643   1.00
C5       0.31608    0.02020    0.72762   1.00
H1       0.18866    -0.09955   0.75969   1.00
H1       0.19101    0.09990    0.76726   1.00
H1       0.30900    -0.09680   0.73656   1.00
H1       0.30962    0.09632    0.73683   1.00
O3       0.35332    -0.03961   0.73688   1.00
O3       0.34739    0.03901    0.71052   1.00
Si1      0.37830    -0.04247   0.77736   1.00
Si1      0.34647    0.04721    0.66362   1.00
C6       0.41413    -0.07538   0.76043   1.00
C6       0.39841    0.00402    0.78635   1.00
C6       0.35145    -0.06253   0.81649   1.00
C6       0.30449    0.03307    0.63717   1.00
C6       0.35223    0.09802    0.66058   1.00
C6       0.38836    0.02523    0.64351   1.00
C6       0.39855    -0.11194   0.73776   1.00
H2       0.42955    -0.05791   0.73869   1.00
C6       0.44656    -0.09147   0.78851   1.00
H2       0.39967    0.01642    0.75705   1.00
C6       0.37428    0.03366    0.81133   1.00
C6       0.44101    0.00664    0.80261   1.00
H2       0.33829    -0.08831   0.80308   1.00
C6       0.37513    -0.07772   0.85254   1.00
C6       0.31705    -0.03849   0.83501   1.00
C6       0.29173    -0.01071   0.63894   1.00
C6       0.26618    0.05775    0.64079   1.00
H2       0.31359    0.03788    0.60703   1.00
H2       0.32470    0.10949    0.67173   1.00
C6       0.38461    0.11622    0.68721   1.00
C6       0.35786    0.11607    0.61905   1.00
H2       0.41161    0.04625    0.64922   1.00
C6       0.40231    -0.01336   0.66315   1.00
C6       0.38911    0.01756    0.59846   1.00
H2       0.38019    -0.10346   0.71312   1.00
H2       0.38137    -0.13090   0.75680   1.00
H2       0.42257    -0.12917   0.72575   1.00
H2       0.47369    -0.09608   0.77235   1.00
H2       0.45303    -0.07178   0.81252   1.00
H2       0.43870    -0.11964   0.80117   1.00
H2       0.38564    0.06328    0.80779   1.00
H2       0.34380    0.03468    0.80250   1.00
H2       0.37572    0.02648    0.84233   1.00
H2       0.46163    -0.00862   0.78374   1.00
H2       0.45104    0.03692    0.80404   1.00
H2       0.44287    -0.00550   0.83202   1.00
H2       0.39455    -0.05514   0.86388   1.00
H2       0.35605    -0.08708   0.87637   1.00
H2       0.39229    -0.10332   0.84512   1.00
H2       0.32712    -0.01902   0.85812   1.00
H2       0.30140    -0.02068   0.81411   1.00
H2       0.29567    -0.05828   0.84808   1.00
H2       0.27439    -0.01688   0.66485   1.00
H2       0.27368    -0.01809   0.61368   1.00
H2       0.31658    -0.03048   0.63867   1.00
H2       0.24489    0.04875    0.61877   1.00
H2       0.25222    0.05426    0.66908   1.00
H2       0.27138    0.08878    0.63599   1.00
H2       0.38155    0.14798    0.68835   1.00
H2       0.38232    0.10565    0.71721   1.00
H2       0.41389    0.10965    0.67657   1.00
H2       0.33567    0.10584    0.59864   1.00
H2       0.35537    0.14788    0.62031   1.00
H2       0.38660    0.10915    0.60714   1.00
H2       0.38067    -0.03656   0.66073   1.00
H2       0.42963    -0.02381   0.65048   1.00
H2       0.40773    -0.00834   0.69395   1.00
H2       0.41846    0.00956    0.58881   1.00
H2       0.36947    -0.00622   0.59035   1.00
H2       0.38077    0.04343    0.58194   1.00
C4       0.24883    0.24719    0.47916   1.00
C4       0.24951    0.24745    0.52088   1.00
C3       0.25471    0.21310    0.45636   1.00
C3       0.25963    0.21447    0.54384   1.00
C3       0.24253    0.28296    0.45877   1.00
C3       0.23947    0.28244    0.54114   1.00
C2       0.24895    0.24943    0.39488   1.00
C2       0.25105    0.25057    0.60512   1.00
C3       0.25500    0.21419    0.41538   1.00
C3       0.26004    0.21586    0.58481   1.00
C3       0.24219    0.28333    0.41742   1.00
C3       0.24168    0.28369    0.58238   1.00
H1       0.25883    0.18645    0.46885   1.00
H1       0.26725    0.18854    0.53148   1.00
C5       0.23643    0.31811    0.47980   1.00
C5       0.22762    0.31608    0.52020   1.00
H1       0.25969    0.18866    0.40045   1.00
H1       0.26726    0.19101    0.59990   1.00
H1       0.23656    0.30900    0.40320   1.00
H1       0.23683    0.30962    0.59632   1.00
O3       0.23688    0.35332    0.46039   1.00
O3       0.21052    0.34739    0.53901   1.00
Si1      0.27736    0.37830    0.45753   1.00
Si1      0.16362    0.34647    0.54721   1.00
C6       0.26043    0.41413    0.42462   1.00
C6       0.28635    0.39841    0.50402   1.00
C6       0.31649    0.35145    0.43747   1.00
C6       0.13717    0.30449    0.53307   1.00
C6       0.16058    0.35223    0.59802   1.00
C6       0.14351    0.38836    0.52523   1.00
C6       0.23776    0.39855    0.38806   1.00
H2       0.23869    0.42955    0.44209   1.00
C6       0.28851    0.44656    0.40853   1.00
H2       0.25705    0.39967    0.51642   1.00
C6       0.31133    0.37428    0.53366   1.00
C6       0.30261    0.44101    0.50664   1.00
H2       0.30308    0.33829    0.41169   1.00
C6       0.35254    0.37513    0.42228   1.00
C6       0.33501    0.31705    0.46151   1.00
C6       0.13894    0.29173    0.48929   1.00
C6       0.14079    0.26618    0.55775   1.00
H2       0.10703    0.31359    0.53788   1.00
H2       0.17173    0.32470    0.60949   1.00
C6       0.18721    0.38461    0.61622   1.00
C6       0.11905    0.35786    0.61607   1.00
H2       0.14922    0.41161    0.54625   1.00
C6       0.16315    0.40231    0.48664   1.00
C6       0.09846    0.38911    0.51756   1.00
H2       0.21312    0.38019    0.39654   1.00
H2       0.25680    0.38137    0.36910   1.00
H2       0.22575    0.42257    0.37083   1.00
H2       0.27235    0.47369    0.40392   1.00
H2       0.31252    0.45303    0.42822   1.00
H2       0.30117    0.43870    0.38036   1.00
H2       0.30779    0.38564    0.56328   1.00
H2       0.30250    0.34380    0.53468   1.00
H2       0.34233    0.37572    0.52648   1.00
H2       0.28374    0.46163    0.49138   1.00
H2       0.30404    0.45104    0.53692   1.00
H2       0.33202    0.44287    0.49450   1.00
H2       0.36388    0.39455    0.44486   1.00
H2       0.37637    0.35605    0.41292   1.00
H2       0.34512    0.39229    0.39668   1.00
H2       0.35812    0.32712    0.48098   1.00
H2       0.31411    0.30140    0.47932   1.00
H2       0.34808    0.29567    0.44172   1.00
H2       0.16485    0.27439    0.48312   1.00
H2       0.11368    0.27368    0.48191   1.00
H2       0.13867    0.31658    0.46952   1.00
H2       0.11877    0.24489    0.54875   1.00
H2       0.16908    0.25222    0.55426   1.00
H2       0.13599    0.27138    0.58878   1.00
H2       0.18835    0.38155    0.64798   1.00
H2       0.21721    0.38232    0.60565   1.00
H2       0.17657    0.41389    0.60965   1.00
H2       0.09864    0.33567    0.60584   1.00
H2       0.12031    0.35537    0.64788   1.00
H2       0.10714    0.38660    0.60915   1.00
H2       0.16073    0.38067    0.46344   1.00
H2       0.15048    0.42963    0.47619   1.00
H2       0.19395    0.40773    0.49166   1.00
H2       0.08881    0.41846    0.50956   1.00
H2       0.09035    0.36947    0.49378   1.00
H2       0.08194    0.38077    0.54343   1.00
C4       0.24883    0.75281    0.52084   1.00
C4       0.24951    0.75255    0.47912   1.00
C3       0.25471    0.78690    0.54364   1.00
C3       0.25963    0.78553    0.45616   1.00
C3       0.24253    0.71704    0.54123   1.00
C3       0.23947    0.71756    0.45886   1.00
C2       0.24895    0.75057    0.60512   1.00
C2       0.25105    0.74943    0.39488   1.00
C3       0.25500    0.78581    0.58462   1.00
C3       0.26004    0.78414    0.41519   1.00
C3       0.24219    0.71667    0.58258   1.00
C3       0.24168    0.71631    0.41762   1.00
H1       0.25883    0.81355    0.53115   1.00
H1       0.26725    0.81146    0.46852   1.00
C5       0.23643    0.68189    0.52020   1.00
C5       0.22762    0.68392    0.47980   1.00
H1       0.25969    0.81134    0.59955   1.00
H1       0.26726    0.80899    0.40010   1.00
H1       0.23656    0.69100    0.59680   1.00
H1       0.23683    0.69038    0.40368   1.00
O3       0.23688    0.64668    0.53961   1.00
O3       0.21052    0.65261    0.46099   1.00
Si1      0.27736    0.62170    0.54247   1.00
Si1      0.16362    0.65353    0.45279   1.00
C6       0.26043    0.58587    0.57538   1.00
C6       0.28635    0.60159    0.49598   1.00
C6       0.31649    0.64855    0.56253   1.00
C6       0.13717    0.69551    0.46693   1.00
C6       0.16058    0.64777    0.40198   1.00
C6       0.14351    0.61164    0.47477   1.00
C6       0.23776    0.60145    0.61194   1.00
H2       0.23869    0.57045    0.55791   1.00
C6       0.28851    0.55344    0.59147   1.00
H2       0.25705    0.60033    0.48358   1.00
C6       0.31133    0.62572    0.46634   1.00
C6       0.30261    0.55899    0.49336   1.00
H2       0.30308    0.66171    0.58831   1.00
C6       0.35254    0.62487    0.57772   1.00
C6       0.33501    0.68295    0.53849   1.00
C6       0.13894    0.70827    0.51071   1.00
C6       0.14079    0.73382    0.44225   1.00
H2       0.10703    0.68641    0.46212   1.00
H2       0.17173    0.67530    0.39051   1.00
C6       0.18721    0.61539    0.38378   1.00
C6       0.11905    0.64214    0.38393   1.00
H2       0.14922    0.58839    0.45375   1.00
C6       0.16315    0.59769    0.51336   1.00
C6       0.09846    0.61089    0.48244   1.00
H2       0.21312    0.61981    0.60346   1.00
H2       0.25680    0.61863    0.63090   1.00
H2       0.22575    0.57743    0.62917   1.00
H2       0.27235    0.52631    0.59608   1.00
H2       0.31252    0.54697    0.57178   1.00
H2       0.30117    0.56130    0.61964   1.00
H2       0.30779    0.61436    0.43672   1.00
H2       0.30250    0.65620    0.46532   1.00
H2       0.34233    0.62428    0.47352   1.00
H2       0.28374    0.53837    0.50862   1.00
H2       0.30404    0.54896    0.46308   1.00
H2       0.33202    0.55713    0.50550   1.00
H2       0.36388    0.60545    0.55514   1.00
H2       0.37637    0.64395    0.58708   1.00
H2       0.34512    0.60771    0.60332   1.00
H2       0.35812    0.67288    0.51902   1.00
H2       0.31411    0.69860    0.52068   1.00
H2       0.34808    0.70433    0.55828   1.00
H2       0.16485    0.72561    0.51688   1.00
H2       0.11368    0.72632    0.51809   1.00
H2       0.13867    0.68342    0.53048   1.00
H2       0.11877    0.75511    0.45125   1.00
H2       0.16908    0.74778    0.44574   1.00
H2       0.13599    0.72862    0.41122   1.00
H2       0.18835    0.61845    0.35202   1.00
H2       0.21721    0.61768    0.39435   1.00
H2       0.17657    0.58611    0.39035   1.00
H2       0.09864    0.66433    0.39416   1.00
H2       0.12031    0.64463    0.35212   1.00
H2       0.10714    0.61340    0.39085   1.00
H2       0.16073    0.61933    0.53656   1.00
H2       0.15048    0.57037    0.52381   1.00
H2       0.19395    0.59227    0.50834   1.00
H2       0.08881    0.58154    0.49044   1.00
H2       0.09035    0.63053    0.50622   1.00
H2       0.08194    0.61923    0.45657   1.00
C4       0.25281    1.02084    0.24883   1.00
C4       0.25255    0.97912    0.24951   1.00
C3       0.28690    1.04364    0.25471   1.00
C3       0.28553    0.95616    0.25963   1.00
C3       0.21704    1.04123    0.24253   1.00
C3       0.21756    0.95886    0.23947   1.00
C2       0.25057    1.10512    0.24895   1.00
C2       0.24943    0.89488    0.25105   1.00
C3       0.28581    1.08462    0.25500   1.00
C3       0.28414    0.91519    0.26004   1.00
C3       0.21667    1.08258    0.24219   1.00
C3       0.21631    0.91762    0.24168   1.00
H1       0.31355    1.03115    0.25883   1.00
H1       0.31146    0.96852    0.26725   1.00
C5       0.18189    1.02020    0.23643   1.00
C5       0.18392    0.97980    0.22762   1.00
H1       0.31134    1.09955    0.25969   1.00
H1       0.30899    0.90010    0.26726   1.00
H1       0.19100    1.09680    0.23656   1.00
H1       0.19038    0.90368    0.23683   1.00
O3       0.14668    1.03961    0.23688   1.00
O3       0.15261    0.96099    0.21052   1.00
Si1      0.12170    1.04247    0.27736   1.00
Si1      0.15353    0.95279    0.16362   1.00
C6       0.08587    1.07538    0.26043   1.00
C6       0.10159    0.99598    0.28635   1.00
C6       0.14855    1.06253    0.31649   1.00
C6       0.19551    0.96693    0.13717   1.00
C6       0.14777    0.90198    0.16058   1.00
C6       0.11164    0.97477    0.14351   1.00
C6       0.10145    1.11194    0.23776   1.00
H2       0.07045    1.05791    0.23869   1.00
C6       0.05344    1.09147    0.28851   1.00
H2       0.10033    0.98358    0.25705   1.00
C6       0.12572    0.96634    0.31133   1.00
C6       0.05899    0.99336    0.30261   1.00
H2       0.16171    1.08831    0.30308   1.00
C6       0.12487    1.07772    0.35254   1.00
C6       0.18295    1.03849    0.33501   1.00
C6       0.20827    1.01071    0.13894   1.00
C6       0.23382    0.94225    0.14079   1.00
H2       0.18641    0.96212    0.10703   1.00
H2       0.17530    0.89051    0.17173   1.00
C6       0.11539    0.88378    0.18721   1.00
C6       0.14214    0.88393    0.11905   1.00
H2       0.08839    0.95375    0.14922   1.00
C6       0.09769    1.01336    0.16315   1.00
C6       0.11089    0.98244    0.09846   1.00
H2       0.11981    1.10346    0.21312   1.00
H2       0.11863    1.13090    0.25680   1.00
H2       0.07743    1.12917    0.22575   1.00
H2       0.02631    1.09608    0.27235   1.00
H2       0.04697    1.07178    0.31252   1.00
H2       0.06130    1.11964    0.30117   1.00
H2       0.11436    0.93672    0.30779   1.00
H2       0.15620    0.96532    0.30250   1.00
H2       0.12428    0.97352    0.34233   1.00
H2       0.03837    1.00862    0.28374   1.00
H2       0.04896    0.96308    0.30404   1.00
H2       0.05713    1.00550    0.33202   1.00
H2       0.10545    1.05514    0.36388   1.00
H2       0.14395    1.08708    0.37637   1.00
H2       0.10771    1.10332    0.34512   1.00
H2       0.17288    1.01902    0.35812   1.00
H2       0.19860    1.02068    0.31411   1.00
H2       0.20433    1.05828    0.34808   1.00
H2       0.22561    1.01688    0.16485   1.00
H2       0.22632    1.01809    0.11368   1.00
H2       0.18342    1.03048    0.13867   1.00
H2       0.25511    0.95125    0.11877   1.00
H2       0.24778    0.94574    0.16908   1.00
H2       0.22862    0.91122    0.13599   1.00
H2       0.11845    0.85202    0.18835   1.00
H2       0.11768    0.89435    0.21721   1.00
H2       0.08611    0.89035    0.17657   1.00
H2       0.16433    0.89416    0.09864   1.00
H2       0.14463    0.85212    0.12031   1.00
H2       0.11340    0.89085    0.10714   1.00
H2       0.11933    1.03656    0.16073   1.00
H2       0.07037    1.02381    0.15048   1.00
H2       0.09227    1.00834    0.19395   1.00
H2       0.08154    0.99044    0.08881   1.00
H2       0.13053    1.00622    0.09035   1.00
H2       0.11923    0.95657    0.08194   1.00
C4       -0.02084   0.74883    0.24719   1.00
C4       0.02088    0.74951    0.24745   1.00
C3       -0.04364   0.75471    0.21310   1.00
C3       0.04384    0.75963    0.21447   1.00
C3       -0.04123   0.74253    0.28296   1.00
C3       0.04114    0.73947    0.28244   1.00
C2       -0.10512   0.74895    0.24943   1.00
C2       0.10512    0.75105    0.25057   1.00
C3       -0.08462   0.75500    0.21419   1.00
C3       0.08481    0.76004    0.21586   1.00
C3       -0.08258   0.74219    0.28333   1.00
C3       0.08238    0.74168    0.28369   1.00
H1       -0.03115   0.75883    0.18645   1.00
H1       0.03148    0.76725    0.18854   1.00
C5       -0.02020   0.73643    0.31811   1.00
C5       0.02020    0.72762    0.31608   1.00
H1       -0.09955   0.75969    0.18866   1.00
H1       0.09990    0.76726    0.19101   1.00
H1       -0.09680   0.73656    0.30900   1.00
H1       0.09632    0.73683    0.30962   1.00
O3       -0.03961   0.73688    0.35332   1.00
O3       0.03901    0.71052    0.34739   1.00
Si1      -0.04247   0.77736    0.37830   1.00
Si1      0.04721    0.66362    0.34647   1.00
C6       -0.07538   0.76043    0.41413   1.00
C6       0.00402    0.78635    0.39841   1.00
C6       -0.06253   0.81649    0.35145   1.00
C6       0.03307    0.63717    0.30449   1.00
C6       0.09802    0.66058    0.35223   1.00
C6       0.02523    0.64351    0.38836   1.00
C6       -0.11194   0.73776    0.39855   1.00
H2       -0.05791   0.73869    0.42955   1.00
C6       -0.09147   0.78851    0.44656   1.00
H2       0.01642    0.75705    0.39967   1.00
C6       0.03366    0.81133    0.37428   1.00
C6       0.00664    0.80261    0.44101   1.00
H2       -0.08831   0.80308    0.33829   1.00
C6       -0.07772   0.85254    0.37513   1.00
C6       -0.03849   0.83501    0.31705   1.00
C6       -0.01071   0.63894    0.29173   1.00
C6       0.05775    0.64079    0.26618   1.00
H2       0.03788    0.60703    0.31359   1.00
H2       0.10949    0.67173    0.32470   1.00
C6       0.11622    0.68721    0.38461   1.00
C6       0.11607    0.61905    0.35786   1.00
H2       0.04625    0.64922    0.41161   1.00
C6       -0.01336   0.66315    0.40231   1.00
C6       0.01756    0.59846    0.38911   1.00
H2       -0.10346   0.71312    0.38019   1.00
H2       -0.13090   0.75680    0.38137   1.00
H2       -0.12917   0.72575    0.42257   1.00
H2       -0.09608   0.77235    0.47369   1.00
H2       -0.07178   0.81252    0.45303   1.00
H2       -0.11964   0.80117    0.43870   1.00
H2       0.06328    0.80779    0.38564   1.00
H2       0.03468    0.80250    0.34380   1.00
H2       0.02648    0.84233    0.37572   1.00
H2       -0.00862   0.78374    0.46163   1.00
H2       0.03692    0.80404    0.45104   1.00
H2       -0.00550   0.83202    0.44287   1.00
H2       -0.05514   0.86388    0.39455   1.00
H2       -0.08708   0.87637    0.35605   1.00
H2       -0.10332   0.84512    0.39229   1.00
H2       -0.01902   0.85812    0.32712   1.00
H2       -0.02068   0.81411    0.30140   1.00
H2       -0.05828   0.84808    0.29567   1.00
H2       -0.01688   0.66485    0.27439   1.00
H2       -0.01809   0.61368    0.27368   1.00
H2       -0.03048   0.63867    0.31658   1.00
H2       0.04875    0.61877    0.24489   1.00
H2       0.05426    0.66908    0.25222   1.00
H2       0.08878    0.63599    0.27138   1.00
H2       0.14798    0.68835    0.38155   1.00
H2       0.10565    0.71721    0.38232   1.00
H2       0.10965    0.67657    0.41389   1.00
H2       0.10584    0.59864    0.33567   1.00
H2       0.14788    0.62031    0.35537   1.00
H2       0.10915    0.60714    0.38660   1.00
H2       -0.03656   0.66073    0.38067   1.00
H2       -0.02381   0.65048    0.42963   1.00
H2       -0.00834   0.69395    0.40773   1.00
H2       0.00956    0.58881    0.41846   1.00
H2       -0.00622   0.59035    0.36947   1.00
H2       0.04343    0.58194    0.38077   1.00
C4       0.52084    0.74883    0.25281   1.00
C4       0.47912    0.74951    0.25255   1.00
C3       0.54364    0.75471    0.28690   1.00
C3       0.45616    0.75963    0.28553   1.00
C3       0.54123    0.74253    0.21704   1.00
C3       0.45886    0.73947    0.21756   1.00
C2       0.60512    0.74895    0.25057   1.00
C2       0.39488    0.75105    0.24943   1.00
C3       0.58462    0.75500    0.28581   1.00
C3       0.41519    0.76004    0.28414   1.00
C3       0.58258    0.74219    0.21667   1.00
C3       0.41762    0.74168    0.21631   1.00
H1       0.53115    0.75883    0.31355   1.00
H1       0.46852    0.76725    0.31146   1.00
C5       0.52020    0.73643    0.18189   1.00
C5       0.47980    0.72762    0.18392   1.00
H1       0.59955    0.75969    0.31134   1.00
H1       0.40010    0.76726    0.30899   1.00
H1       0.59680    0.73656    0.19100   1.00
H1       0.40368    0.73683    0.19038   1.00
O3       0.53961    0.73688    0.14668   1.00
O3       0.46099    0.71052    0.15261   1.00
Si1      0.54247    0.77736    0.12170   1.00
Si1      0.45279    0.66362    0.15353   1.00
C6       0.57538    0.76043    0.08587   1.00
C6       0.49598    0.78635    0.10159   1.00
C6       0.56253    0.81649    0.14855   1.00
C6       0.46693    0.63717    0.19551   1.00
C6       0.40198    0.66058    0.14777   1.00
C6       0.47477    0.64351    0.11164   1.00
C6       0.61194    0.73776    0.10145   1.00
H2       0.55791    0.73869    0.07045   1.00
C6       0.59147    0.78851    0.05344   1.00
H2       0.48358    0.75705    0.10033   1.00
C6       0.46634    0.81133    0.12572   1.00
C6       0.49336    0.80261    0.05899   1.00
H2       0.58831    0.80308    0.16171   1.00
C6       0.57772    0.85254    0.12487   1.00
C6       0.53849    0.83501    0.18295   1.00
C6       0.51071    0.63894    0.20827   1.00
C6       0.44225    0.64079    0.23382   1.00
H2       0.46212    0.60703    0.18641   1.00
H2       0.39051    0.67173    0.17530   1.00
C6       0.38378    0.68721    0.11539   1.00
C6       0.38393    0.61905    0.14214   1.00
H2       0.45375    0.64922    0.08839   1.00
C6       0.51336    0.66315    0.09769   1.00
C6       0.48244    0.59846    0.11089   1.00
H2       0.60346    0.71312    0.11981   1.00
H2       0.63090    0.75680    0.11863   1.00
H2       0.62917    0.72575    0.07743   1.00
H2       0.59608    0.77235    0.02631   1.00
H2       0.57178    0.81252    0.04697   1.00
H2       0.61964    0.80117    0.06130   1.00
H2       0.43672    0.80779    0.11436   1.00
H2       0.46532    0.80250    0.15620   1.00
H2       0.47352    0.84233    0.12428   1.00
H2       0.50862    0.78374    0.03837   1.00
H2       0.46308    0.80404    0.04896   1.00
H2       0.50550    0.83202    0.05713   1.00
H2       0.55514    0.86388    0.10545   1.00
H2       0.58708    0.87637    0.14395   1.00
H2       0.60332    0.84512    0.10771   1.00
H2       0.51902    0.85812    0.17288   1.00
H2       0.52068    0.81411    0.19860   1.00
H2       0.55828    0.84808    0.20433   1.00
H2       0.51688    0.66485    0.22561   1.00
H2       0.51809    0.61368    0.22632   1.00
H2       0.53048    0.63867    0.18342   1.00
H2       0.45125    0.61877    0.25511   1.00
H2       0.44574    0.66908    0.24778   1.00
H2       0.41122    0.63599    0.22862   1.00
H2       0.35202    0.68835    0.11845   1.00
H2       0.39435    0.71721    0.11768   1.00
H2       0.39035    0.67657    0.08611   1.00
H2       0.39416    0.59864    0.16433   1.00
H2       0.35212    0.62031    0.14463   1.00
H2       0.39085    0.60714    0.11340   1.00
H2       0.53656    0.66073    0.11933   1.00
H2       0.52381    0.65048    0.07037   1.00
H2       0.50834    0.69395    0.09227   1.00
H2       0.49044    0.58881    0.08154   1.00
H2       0.50622    0.59035    0.13053   1.00
H2       0.45657    0.58194    0.11923   1.00
C4       0.24719    0.47916    0.24883   1.00
C4       0.24745    0.52088    0.24951   1.00
C3       0.21310    0.45636    0.25471   1.00
C3       0.21447    0.54384    0.25963   1.00
C3       0.28296    0.45877    0.24253   1.00
C3       0.28244    0.54114    0.23947   1.00
C2       0.24943    0.39488    0.24895   1.00
C2       0.25057    0.60512    0.25105   1.00
C3       0.21419    0.41538    0.25500   1.00
C3       0.21586    0.58481    0.26004   1.00
C3       0.28333    0.41742    0.24219   1.00
C3       0.28369    0.58238    0.24168   1.00
H1       0.18645    0.46885    0.25883   1.00
H1       0.18854    0.53148    0.26725   1.00
C5       0.31811    0.47980    0.23643   1.00
C5       0.31608    0.52020    0.22762   1.00
H1       0.18866    0.40045    0.25969   1.00
H1       0.19101    0.59990    0.26726   1.00
H1       0.30900    0.40320    0.23656   1.00
H1       0.30962    0.59632    0.23683   1.00
O3       0.35332    0.46039    0.23688   1.00
O3       0.34739    0.53901    0.21052   1.00
Si1      0.37830    0.45753    0.27736   1.00
Si1      0.34647    0.54721    0.16362   1.00
C6       0.41413    0.42462    0.26043   1.00
C6       0.39841    0.50402    0.28635   1.00
C6       0.35145    0.43747    0.31649   1.00
C6       0.30449    0.53307    0.13717   1.00
C6       0.35223    0.59802    0.16058   1.00
C6       0.38836    0.52523    0.14351   1.00
C6       0.39855    0.38806    0.23776   1.00
H2       0.42955    0.44209    0.23869   1.00
C6       0.44656    0.40853    0.28851   1.00
H2       0.39967    0.51642    0.25705   1.00
C6       0.37428    0.53366    0.31133   1.00
C6       0.44101    0.50664    0.30261   1.00
H2       0.33829    0.41169    0.30308   1.00
C6       0.37513    0.42228    0.35254   1.00
C6       0.31705    0.46151    0.33501   1.00
C6       0.29173    0.48929    0.13894   1.00
C6       0.26618    0.55775    0.14079   1.00
H2       0.31359    0.53788    0.10703   1.00
H2       0.32470    0.60949    0.17173   1.00
C6       0.38461    0.61622    0.18721   1.00
C6       0.35786    0.61607    0.11905   1.00
H2       0.41161    0.54625    0.14922   1.00
C6       0.40231    0.48664    0.16315   1.00
C6       0.38911    0.51756    0.09846   1.00
H2       0.38019    0.39654    0.21312   1.00
H2       0.38137    0.36910    0.25680   1.00
H2       0.42257    0.37083    0.22575   1.00
H2       0.47369    0.40392    0.27235   1.00
H2       0.45303    0.42822    0.31252   1.00
H2       0.43870    0.38036    0.30117   1.00
H2       0.38564    0.56328    0.30779   1.00
H2       0.34380    0.53468    0.30250   1.00
H2       0.37572    0.52648    0.34233   1.00
H2       0.46163    0.49138    0.28374   1.00
H2       0.45104    0.53692    0.30404   1.00
H2       0.44287    0.49450    0.33202   1.00
H2       0.39455    0.44486    0.36388   1.00
H2       0.35605    0.41292    0.37637   1.00
H2       0.39229    0.39668    0.34512   1.00
H2       0.32712    0.48098    0.35812   1.00
H2       0.30140    0.47932    0.31411   1.00
H2       0.29567    0.44172    0.34808   1.00
H2       0.27439    0.48312    0.16485   1.00
H2       0.27368    0.48191    0.11368   1.00
H2       0.31658    0.46952    0.13867   1.00
H2       0.24489    0.54875    0.11877   1.00
H2       0.25222    0.55426    0.16908   1.00
H2       0.27138    0.58878    0.13599   1.00
H2       0.38155    0.64798    0.18835   1.00
H2       0.38232    0.60565    0.21721   1.00
H2       0.41389    0.60965    0.17657   1.00
H2       0.33567    0.60584    0.09864   1.00
H2       0.35537    0.64788    0.12031   1.00
H2       0.38660    0.60915    0.10714   1.00
H2       0.38067    0.46344    0.16073   1.00
H2       0.42963    0.47619    0.15048   1.00
H2       0.40773    0.49166    0.19395   1.00
H2       0.41846    0.50956    0.08881   1.00
H2       0.36947    0.49378    0.09035   1.00
H2       0.38077    0.54343    0.08194   1.00
C4       0.24883    0.74719    -0.02084   1.00
C4       0.24951    0.74745    0.02088   1.00
C3       0.25471    0.71310    -0.04364   1.00
C3       0.25963    0.71447    0.04384   1.00
C3       0.24253    0.78296    -0.04123   1.00
C3       0.23947    0.78244    0.04114   1.00
C2       0.24895    0.74943    -0.10512   1.00
C2       0.25105    0.75057    0.10512   1.00
C3       0.25500    0.71419    -0.08462   1.00
C3       0.26004    0.71586    0.08481   1.00
C3       0.24219    0.78333    -0.08258   1.00
C3       0.24168    0.78369    0.08238   1.00
H1       0.25883    0.68645    -0.03115   1.00
H1       0.26725    0.68854    0.03148   1.00
C5       0.23643    0.81811    -0.02020   1.00
C5       0.22762    0.81608    0.02020   1.00
H1       0.25969    0.68866    -0.09955   1.00
H1       0.26726    0.69101    0.09990   1.00
H1       0.23656    0.80900    -0.09680   1.00
H1       0.23683    0.80962    0.09632   1.00
O3       0.23688    0.85332    -0.03961   1.00
O3       0.21052    0.84739    0.03901   1.00
Si1      0.27736    0.87830    -0.04247   1.00
Si1      0.16362    0.84647    0.04721   1.00
C6       0.26043    0.91413    -0.07538   1.00
C6       0.28635    0.89841    0.00402   1.00
C6       0.31649    0.85145    -0.06253   1.00
C6       0.13717    0.80449    0.03307   1.00
C6       0.16058    0.85223    0.09802   1.00
C6       0.14351    0.88836    0.02523   1.00
C6       0.23776    0.89855    -0.11194   1.00
H2       0.23869    0.92955    -0.05791   1.00
C6       0.28851    0.94656    -0.09147   1.00
H2       0.25705    0.89967    0.01642   1.00
C6       0.31133    0.87428    0.03366   1.00
C6       0.30261    0.94101    0.00664   1.00
H2       0.30308    0.83829    -0.08831   1.00
C6       0.35254    0.87513    -0.07772   1.00
C6       0.33501    0.81705    -0.03849   1.00
C6       0.13894    0.79173    -0.01071   1.00
C6       0.14079    0.76618    0.05775   1.00
H2       0.10703    0.81359    0.03788   1.00
H2       0.17173    0.82470    0.10949   1.00
C6       0.18721    0.88461    0.11622   1.00
C6       0.11905    0.85786    0.11607   1.00
H2       0.14922    0.91161    0.04625   1.00
C6       0.16315    0.90231    -0.01336   1.00
C6       0.09846    0.88911    0.01756   1.00
H2       0.21312    0.88019    -0.10346   1.00
H2       0.25680    0.88137    -0.13090   1.00
H2       0.22575    0.92257    -0.12917   1.00
H2       0.27235    0.97369    -0.09608   1.00
H2       0.31252    0.95303    -0.07178   1.00
H2       0.30117    0.93870    -0.11964   1.00
H2       0.30779    0.88564    0.06328   1.00
H2       0.30250    0.84380    0.03468   1.00
H2       0.34233    0.87572    0.02648   1.00
H2       0.28374    0.96163    -0.00862   1.00
H2       0.30404    0.95104    0.03692   1.00
H2       0.33202    0.94287    -0.00550   1.00
H2       0.36388    0.89455    -0.05514   1.00
H2       0.37637    0.85605    -0.08708   1.00
H2       0.34512    0.89229    -0.10332   1.00
H2       0.35812    0.82712    -0.01902   1.00
H2       0.31411    0.80140    -0.02068   1.00
H2       0.34808    0.79567    -0.05828   1.00
H2       0.16485    0.77439    -0.01688   1.00
H2       0.11368    0.77368    -0.01809   1.00
H2       0.13867    0.81658    -0.03048   1.00
H2       0.11877    0.74489    0.04875   1.00
H2       0.16908    0.75222    0.05426   1.00
H2       0.13599    0.77138    0.08878   1.00
H2       0.18835    0.88155    0.14798   1.00
H2       0.21721    0.88232    0.10565   1.00
H2       0.17657    0.91389    0.10965   1.00
H2       0.09864    0.83567    0.10584   1.00
H2       0.12031    0.85537    0.14788   1.00
H2       0.10714    0.88660    0.10915   1.00
H2       0.16073    0.88067    -0.03656   1.00
H2       0.15048    0.92963    -0.02381   1.00
H2       0.19395    0.90773    -0.00834   1.00
H2       0.08881    0.91846    0.00956   1.00
H2       0.09035    0.86947    -0.00622   1.00
H2       0.08194    0.88077    0.04343   1.00
C4       0.74883    0.25281    0.52084   1.00
C4       0.74951    0.25255    0.47912   1.00
C3       0.75471    0.28690    0.54364   1.00
C3       0.75963    0.28553    0.45616   1.00
C3       0.74253    0.21704    0.54123   1.00
C3       0.73947    0.21756    0.45886   1.00
C2       0.74895    0.25057    0.60512   1.00
C2       0.75105    0.24943    0.39488   1.00
C3       0.75500    0.28581    0.58462   1.00
C3       0.76004    0.28414    0.41519   1.00
C3       0.74219    0.21667    0.58258   1.00
C3       0.74168    0.21631    0.41762   1.00
H1       0.75883    0.31355    0.53115   1.00
H1       0.76725    0.31146    0.46852   1.00
C5       0.73643    0.18189    0.52020   1.00
C5       0.72762    0.18392    0.47980   1.00
H1       0.75969    0.31134    0.59955   1.00
H1       0.76726    0.30899    0.40010   1.00
H1       0.73656    0.19100    0.59680   1.00
H1       0.73683    0.19038    0.40368   1.00
O3       0.73688    0.14668    0.53961   1.00
O3       0.71052    0.15261    0.46099   1.00
Si1      0.77736    0.12170    0.54247   1.00
Si1      0.66362    0.15353    0.45279   1.00
C6       0.76043    0.08587    0.57538   1.00
C6       0.78635    0.10159    0.49598   1.00
C6       0.81649    0.14855    0.56253   1.00
C6       0.63717    0.19551    0.46693   1.00
C6       0.66058    0.14777    0.40198   1.00
C6       0.64351    0.11164    0.47477   1.00
C6       0.73776    0.10145    0.61194   1.00
H2       0.73869    0.07045    0.55791   1.00
C6       0.78851    0.05344    0.59147   1.00
H2       0.75705    0.10033    0.48358   1.00
C6       0.81133    0.12572    0.46634   1.00
C6       0.80261    0.05899    0.49336   1.00
H2       0.80308    0.16171    0.58831   1.00
C6       0.85254    0.12487    0.57772   1.00
C6       0.83501    0.18295    0.53849   1.00
C6       0.63894    0.20827    0.51071   1.00
C6       0.64079    0.23382    0.44225   1.00
H2       0.60703    0.18641    0.46212   1.00
H2       0.67173    0.17530    0.39051   1.00
C6       0.68721    0.11539    0.38378   1.00
C6       0.61905    0.14214    0.38393   1.00
H2       0.64922    0.08839    0.45375   1.00
C6       0.66315    0.09769    0.51336   1.00
C6       0.59846    0.11089    0.48244   1.00
H2       0.71312    0.11981    0.60346   1.00
H2       0.75680    0.11863    0.63090   1.00
H2       0.72575    0.07743    0.62917   1.00
H2       0.77235    0.02631    0.59608   1.00
H2       0.81252    0.04697    0.57178   1.00
H2       0.80117    0.06130    0.61964   1.00
H2       0.80779    0.11436    0.43672   1.00
H2       0.80250    0.15620    0.46532   1.00
H2       0.84233    0.12428    0.47352   1.00
H2       0.78374    0.03837    0.50862   1.00
H2       0.80404    0.04896    0.46308   1.00
H2       0.83202    0.05713    0.50550   1.00
H2       0.86388    0.10545    0.55514   1.00
H2       0.87637    0.14395    0.58708   1.00
H2       0.84512    0.10771    0.60332   1.00
H2       0.85812    0.17288    0.51902   1.00
H2       0.81411    0.19860    0.52068   1.00
H2       0.84808    0.20433    0.55828   1.00
H2       0.66485    0.22561    0.51688   1.00
H2       0.61368    0.22632    0.51809   1.00
H2       0.63867    0.18342    0.53048   1.00
H2       0.61877    0.25511    0.45125   1.00
H2       0.66908    0.24778    0.44574   1.00
H2       0.63599    0.22862    0.41122   1.00
H2       0.68835    0.11845    0.35202   1.00
H2       0.71721    0.11768    0.39435   1.00
H2       0.67657    0.08611    0.39035   1.00
H2       0.59864    0.16433    0.39416   1.00
H2       0.62031    0.14463    0.35212   1.00
H2       0.60714    0.11340    0.39085   1.00
H2       0.66073    0.11933    0.53656   1.00
H2       0.65048    0.07037    0.52381   1.00
H2       0.69395    0.09227    0.50834   1.00
H2       0.58881    0.08154    0.49044   1.00
H2       0.59035    0.13053    0.50622   1.00
H2       0.58194    0.11923    0.45657   1.00
C4       0.75281    0.52084    0.24883   1.00
C4       0.75255    0.47912    0.24951   1.00
C3       0.78690    0.54364    0.25471   1.00
C3       0.78553    0.45616    0.25963   1.00
C3       0.71704    0.54123    0.24253   1.00
C3       0.71756    0.45886    0.23947   1.00
C2       0.75057    0.60512    0.24895   1.00
C2       0.74943    0.39488    0.25105   1.00
C3       0.78581    0.58462    0.25500   1.00
C3       0.78414    0.41519    0.26004   1.00
C3       0.71667    0.58258    0.24219   1.00
C3       0.71631    0.41762    0.24168   1.00
H1       0.81355    0.53115    0.25883   1.00
H1       0.81146    0.46852    0.26725   1.00
C5       0.68189    0.52020    0.23643   1.00
C5       0.68392    0.47980    0.22762   1.00
H1       0.81134    0.59955    0.25969   1.00
H1       0.80899    0.40010    0.26726   1.00
H1       0.69100    0.59680    0.23656   1.00
H1       0.69038    0.40368    0.23683   1.00
O3       0.64668    0.53961    0.23688   1.00
O3       0.65261    0.46099    0.21052   1.00
Si1      0.62170    0.54247    0.27736   1.00
Si1      0.65353    0.45279    0.16362   1.00
C6       0.58587    0.57538    0.26043   1.00
C6       0.60159    0.49598    0.28635   1.00
C6       0.64855    0.56253    0.31649   1.00
C6       0.69551    0.46693    0.13717   1.00
C6       0.64777    0.40198    0.16058   1.00
C6       0.61164    0.47477    0.14351   1.00
C6       0.60145    0.61194    0.23776   1.00
H2       0.57045    0.55791    0.23869   1.00
C6       0.55344    0.59147    0.28851   1.00
H2       0.60033    0.48358    0.25705   1.00
C6       0.62572    0.46634    0.31133   1.00
C6       0.55899    0.49336    0.30261   1.00
H2       0.66171    0.58831    0.30308   1.00
C6       0.62487    0.57772    0.35254   1.00
C6       0.68295    0.53849    0.33501   1.00
C6       0.70827    0.51071    0.13894   1.00
C6       0.73382    0.44225    0.14079   1.00
H2       0.68641    0.46212    0.10703   1.00
H2       0.67530    0.39051    0.17173   1.00
C6       0.61539    0.38378    0.18721   1.00
C6       0.64214    0.38393    0.11905   1.00
H2       0.58839    0.45375    0.14922   1.00
C6       0.59769    0.51336    0.16315   1.00
C6       0.61089    0.48244    0.09846   1.00
H2       0.61981    0.60346    0.21312   1.00
H2       0.61863    0.63090    0.25680   1.00
H2       0.57743    0.62917    0.22575   1.00
H2       0.52631    0.59608    0.27235   1.00
H2       0.54697    0.57178    0.31252   1.00
H2       0.56130    0.61964    0.30117   1.00
H2       0.61436    0.43672    0.30779   1.00
H2       0.65620    0.46532    0.30250   1.00
H2       0.62428    0.47352    0.34233   1.00
H2       0.53837    0.50862    0.28374   1.00
H2       0.54896    0.46308    0.30404   1.00
H2       0.55713    0.50550    0.33202   1.00
H2       0.60545    0.55514    0.36388   1.00
H2       0.64395    0.58708    0.37637   1.00
H2       0.60771    0.60332    0.34512   1.00
H2       0.67288    0.51902    0.35812   1.00
H2       0.69860    0.52068    0.31411   1.00
H2       0.70433    0.55828    0.34808   1.00
H2       0.72561    0.51688    0.16485   1.00
H2       0.72632    0.51809    0.11368   1.00
H2       0.68342    0.53048    0.13867   1.00
H2       0.75511    0.45125    0.11877   1.00
H2       0.74778    0.44574    0.16908   1.00
H2       0.72862    0.41122    0.13599   1.00
H2       0.61845    0.35202    0.18835   1.00
H2       0.61768    0.39435    0.21721   1.00
H2       0.58611    0.39035    0.17657   1.00
H2       0.66433    0.39416    0.09864   1.00
H2       0.64463    0.35212    0.12031   1.00
H2       0.61340    0.39085    0.10714   1.00
H2       0.61933    0.53656    0.16073   1.00
H2       0.57037    0.52381    0.15048   1.00
H2       0.59227    0.50834    0.19395   1.00
H2       0.58154    0.49044    0.08881   1.00
H2       0.63053    0.50622    0.09035   1.00
H2       0.61923    0.45657    0.08194   1.00
C4       0.47916    0.24883    0.24719   1.00
C4       0.52088    0.24951    0.24745   1.00
C3       0.45636    0.25471    0.21310   1.00
C3       0.54384    0.25963    0.21447   1.00
C3       0.45877    0.24253    0.28296   1.00
C3       0.54114    0.23947    0.28244   1.00
C2       0.39488    0.24895    0.24943   1.00
C2       0.60512    0.25105    0.25057   1.00
C3       0.41538    0.25500    0.21419   1.00
C3       0.58481    0.26004    0.21586   1.00
C3       0.41742    0.24219    0.28333   1.00
C3       0.58238    0.24168    0.28369   1.00
H1       0.46885    0.25883    0.18645   1.00
H1       0.53148    0.26725    0.18854   1.00
C5       0.47980    0.23643    0.31811   1.00
C5       0.52020    0.22762    0.31608   1.00
H1       0.40045    0.25969    0.18866   1.00
H1       0.59990    0.26726    0.19101   1.00
H1       0.40320    0.23656    0.30900   1.00
H1       0.59632    0.23683    0.30962   1.00
O3       0.46039    0.23688    0.35332   1.00
O3       0.53901    0.21052    0.34739   1.00
Si1      0.45753    0.27736    0.37830   1.00
Si1      0.54721    0.16362    0.34647   1.00
C6       0.42462    0.26043    0.41413   1.00
C6       0.50402    0.28635    0.39841   1.00
C6       0.43747    0.31649    0.35145   1.00
C6       0.53307    0.13717    0.30449   1.00
C6       0.59802    0.16058    0.35223   1.00
C6       0.52523    0.14351    0.38836   1.00
C6       0.38806    0.23776    0.39855   1.00
H2       0.44209    0.23869    0.42955   1.00
C6       0.40853    0.28851    0.44656   1.00
H2       0.51642    0.25705    0.39967   1.00
C6       0.53366    0.31133    0.37428   1.00
C6       0.50664    0.30261    0.44101   1.00
H2       0.41169    0.30308    0.33829   1.00
C6       0.42228    0.35254    0.37513   1.00
C6       0.46151    0.33501    0.31705   1.00
C6       0.48929    0.13894    0.29173   1.00
C6       0.55775    0.14079    0.26618   1.00
H2       0.53788    0.10703    0.31359   1.00
H2       0.60949    0.17173    0.32470   1.00
C6       0.61622    0.18721    0.38461   1.00
C6       0.61607    0.11905    0.35786   1.00
H2       0.54625    0.14922    0.41161   1.00
C6       0.48664    0.16315    0.40231   1.00
C6       0.51756    0.09846    0.38911   1.00
H2       0.39654    0.21312    0.38019   1.00
H2       0.36910    0.25680    0.38137   1.00
H2       0.37083    0.22575    0.42257   1.00
H2       0.40392    0.27235    0.47369   1.00
H2       0.42822    0.31252    0.45303   1.00
H2       0.38036    0.30117    0.43870   1.00
H2       0.56328    0.30779    0.38564   1.00
H2       0.53468    0.30250    0.34380   1.00
H2       0.52648    0.34233    0.37572   1.00
H2       0.49138    0.28374    0.46163   1.00
H2       0.53692    0.30404    0.45104   1.00
H2       0.49450    0.33202    0.44287   1.00
H2       0.44486    0.36388    0.39455   1.00
H2       0.41292    0.37637    0.35605   1.00
H2       0.39668    0.34512    0.39229   1.00
H2       0.48098    0.35812    0.32712   1.00
H2       0.47932    0.31411    0.30140   1.00
H2       0.44172    0.34808    0.29567   1.00
H2       0.48312    0.16485    0.27439   1.00
H2       0.48191    0.11368    0.27368   1.00
H2       0.46952    0.13867    0.31658   1.00
H2       0.54875    0.11877    0.24489   1.00
H2       0.55426    0.16908    0.25222   1.00
H2       0.58878    0.13599    0.27138   1.00
H2       0.64798    0.18835    0.38155   1.00
H2       0.60565    0.21721    0.38232   1.00
H2       0.60965    0.17657    0.41389   1.00
H2       0.60584    0.09864    0.33567   1.00
H2       0.64788    0.12031    0.35537   1.00
H2       0.60915    0.10714    0.38660   1.00
H2       0.46344    0.16073    0.38067   1.00
H2       0.47619    0.15048    0.42963   1.00
H2       0.49166    0.19395    0.40773   1.00
H2       0.50956    0.08881    0.41846   1.00
H2       0.49378    0.09035    0.36947   1.00
H2       0.54343    0.08194    0.38077   1.00
C4       1.02084    0.24883    0.25281   1.00
C4       0.97912    0.24951    0.25255   1.00
C3       1.04364    0.25471    0.28690   1.00
C3       0.95616    0.25963    0.28553   1.00
C3       1.04123    0.24253    0.21704   1.00
C3       0.95886    0.23947    0.21756   1.00
C2       1.10512    0.24895    0.25057   1.00
C2       0.89488    0.25105    0.24943   1.00
C3       1.08462    0.25500    0.28581   1.00
C3       0.91519    0.26004    0.28414   1.00
C3       1.08258    0.24219    0.21667   1.00
C3       0.91762    0.24168    0.21631   1.00
H1       1.03115    0.25883    0.31355   1.00
H1       0.96852    0.26725    0.31146   1.00
C5       1.02020    0.23643    0.18189   1.00
C5       0.97980    0.22762    0.18392   1.00
H1       1.09955    0.25969    0.31134   1.00
H1       0.90010    0.26726    0.30899   1.00
H1       1.09680    0.23656    0.19100   1.00
H1       0.90368    0.23683    0.19038   1.00
O3       1.03961    0.23688    0.14668   1.00
O3       0.96099    0.21052    0.15261   1.00
Si1      1.04247    0.27736    0.12170   1.00
Si1      0.95279    0.16362    0.15353   1.00
C6       1.07538    0.26043    0.08587   1.00
C6       0.99598    0.28635    0.10159   1.00
C6       1.06253    0.31649    0.14855   1.00
C6       0.96693    0.13717    0.19551   1.00
C6       0.90198    0.16058    0.14777   1.00
C6       0.97477    0.14351    0.11164   1.00
C6       1.11194    0.23776    0.10145   1.00
H2       1.05791    0.23869    0.07045   1.00
C6       1.09147    0.28851    0.05344   1.00
H2       0.98358    0.25705    0.10033   1.00
C6       0.96634    0.31133    0.12572   1.00
C6       0.99336    0.30261    0.05899   1.00
H2       1.08831    0.30308    0.16171   1.00
C6       1.07772    0.35254    0.12487   1.00
C6       1.03849    0.33501    0.18295   1.00
C6       1.01071    0.13894    0.20827   1.00
C6       0.94225    0.14079    0.23382   1.00
H2       0.96212    0.10703    0.18641   1.00
H2       0.89051    0.17173    0.17530   1.00
C6       0.88378    0.18721    0.11539   1.00
C6       0.88393    0.11905    0.14214   1.00
H2       0.95375    0.14922    0.08839   1.00
C6       1.01336    0.16315    0.09769   1.00
C6       0.98244    0.09846    0.11089   1.00
H2       1.10346    0.21312    0.11981   1.00
H2       1.13090    0.25680    0.11863   1.00
H2       1.12917    0.22575    0.07743   1.00
H2       1.09608    0.27235    0.02631   1.00
H2       1.07178    0.31252    0.04697   1.00
H2       1.11964    0.30117    0.06130   1.00
H2       0.93672    0.30779    0.11436   1.00
H2       0.96532    0.30250    0.15620   1.00
H2       0.97352    0.34233    0.12428   1.00
H2       1.00862    0.28374    0.03837   1.00
H2       0.96308    0.30404    0.04896   1.00
H2       1.00550    0.33202    0.05713   1.00
H2       1.05514    0.36388    0.10545   1.00
H2       1.08708    0.37637    0.14395   1.00
H2       1.10332    0.34512    0.10771   1.00
H2       1.01902    0.35812    0.17288   1.00
H2       1.02068    0.31411    0.19860   1.00
H2       1.05828    0.34808    0.20433   1.00
H2       1.01688    0.16485    0.22561   1.00
H2       1.01809    0.11368    0.22632   1.00
H2       1.03048    0.13867    0.18342   1.00
H2       0.95125    0.11877    0.25511   1.00
H2       0.94574    0.16908    0.24778   1.00
H2       0.91122    0.13599    0.22862   1.00
H2       0.85202    0.18835    0.11845   1.00
H2       0.89435    0.21721    0.11768   1.00
H2       0.89035    0.17657    0.08611   1.00
H2       0.89416    0.09864    0.16433   1.00
H2       0.85212    0.12031    0.14463   1.00
H2       0.89085    0.10714    0.11340   1.00
H2       1.03656    0.16073    0.11933   1.00
H2       1.02381    0.15048    0.07037   1.00
H2       1.00834    0.19395    0.09227   1.00
H2       0.99044    0.08881    0.08154   1.00
H2       1.00622    0.09035    0.13053   1.00
H2       0.95657    0.08194    0.11923   1.00
C4       0.74719    -0.02084   0.24883   1.00
C4       0.74745    0.02088    0.24951   1.00
C3       0.71310    -0.04364   0.25471   1.00
C3       0.71447    0.04384    0.25963   1.00
C3       0.78296    -0.04123   0.24253   1.00
C3       0.78244    0.04114    0.23947   1.00
C2       0.74943    -0.10512   0.24895   1.00
C2       0.75057    0.10512    0.25105   1.00
C3       0.71419    -0.08462   0.25500   1.00
C3       0.71586    0.08481    0.26004   1.00
C3       0.78333    -0.08258   0.24219   1.00
C3       0.78369    0.08238    0.24168   1.00
H1       0.68645    -0.03115   0.25883   1.00
H1       0.68854    0.03148    0.26725   1.00
C5       0.81811    -0.02020   0.23643   1.00
C5       0.81608    0.02020    0.22762   1.00
H1       0.68866    -0.09955   0.25969   1.00
H1       0.69101    0.09990    0.26726   1.00
H1       0.80900    -0.09680   0.23656   1.00
H1       0.80962    0.09632    0.23683   1.00
O3       0.85332    -0.03961   0.23688   1.00
O3       0.84739    0.03901    0.21052   1.00
Si1      0.87830    -0.04247   0.27736   1.00
Si1      0.84647    0.04721    0.16362   1.00
C6       0.91413    -0.07538   0.26043   1.00
C6       0.89841    0.00402    0.28635   1.00
C6       0.85145    -0.06253   0.31649   1.00
C6       0.80449    0.03307    0.13717   1.00
C6       0.85223    0.09802    0.16058   1.00
C6       0.88836    0.02523    0.14351   1.00
C6       0.89855    -0.11194   0.23776   1.00
H2       0.92955    -0.05791   0.23869   1.00
C6       0.94656    -0.09147   0.28851   1.00
H2       0.89967    0.01642    0.25705   1.00
C6       0.87428    0.03366    0.31133   1.00
C6       0.94101    0.00664    0.30261   1.00
H2       0.83829    -0.08831   0.30308   1.00
C6       0.87513    -0.07772   0.35254   1.00
C6       0.81705    -0.03849   0.33501   1.00
C6       0.79173    -0.01071   0.13894   1.00
C6       0.76618    0.05775    0.14079   1.00
H2       0.81359    0.03788    0.10703   1.00
H2       0.82470    0.10949    0.17173   1.00
C6       0.88461    0.11622    0.18721   1.00
C6       0.85786    0.11607    0.11905   1.00
H2       0.91161    0.04625    0.14922   1.00
C6       0.90231    -0.01336   0.16315   1.00
C6       0.88911    0.01756    0.09846   1.00
H2       0.88019    -0.10346   0.21312   1.00
H2       0.88137    -0.13090   0.25680   1.00
H2       0.92257    -0.12917   0.22575   1.00
H2       0.97369    -0.09608   0.27235   1.00
H2       0.95303    -0.07178   0.31252   1.00
H2       0.93870    -0.11964   0.30117   1.00
H2       0.88564    0.06328    0.30779   1.00
H2       0.84380    0.03468    0.30250   1.00
H2       0.87572    0.02648    0.34233   1.00
H2       0.96163    -0.00862   0.28374   1.00
H2       0.95104    0.03692    0.30404   1.00
H2       0.94287    -0.00550   0.33202   1.00
H2       0.89455    -0.05514   0.36388   1.00
H2       0.85605    -0.08708   0.37637   1.00
H2       0.89229    -0.10332   0.34512   1.00
H2       0.82712    -0.01902   0.35812   1.00
H2       0.80140    -0.02068   0.31411   1.00
H2       0.79567    -0.05828   0.34808   1.00
H2       0.77439    -0.01688   0.16485   1.00
H2       0.77368    -0.01809   0.11368   1.00
H2       0.81658    -0.03048   0.13867   1.00
H2       0.74489    0.04875    0.11877   1.00
H2       0.75222    0.05426    0.16908   1.00
H2       0.77138    0.08878    0.13599   1.00
H2       0.88155    0.14798    0.18835   1.00
H2       0.88232    0.10565    0.21721   1.00
H2       0.91389    0.10965    0.17657   1.00
H2       0.83567    0.10584    0.09864   1.00
H2       0.85537    0.14788    0.12031   1.00
H2       0.88660    0.10915    0.10714   1.00
H2       0.88067    -0.03656   0.16073   1.00
H2       0.92963    -0.02381   0.15048   1.00
H2       0.90773    -0.00834   0.19395   1.00
H2       0.91846    0.00956    0.08881   1.00
H2       0.86947    -0.00622   0.09035   1.00
H2       0.88077    0.04343    0.08194   1.00
C4       0.74883    0.24719    -0.02084   1.00
C4       0.74951    0.24745    0.02088   1.00
C3       0.75471    0.21310    -0.04364   1.00
C3       0.75963    0.21447    0.04384   1.00
C3       0.74253    0.28296    -0.04123   1.00
C3       0.73947    0.28244    0.04114   1.00
C2       0.74895    0.24943    -0.10512   1.00
C2       0.75105    0.25057    0.10512   1.00
C3       0.75500    0.21419    -0.08462   1.00
C3       0.76004    0.21586    0.08481   1.00
C3       0.74219    0.28333    -0.08258   1.00
C3       0.74168    0.28369    0.08238   1.00
H1       0.75883    0.18645    -0.03115   1.00
H1       0.76725    0.18854    0.03148   1.00
C5       0.73643    0.31811    -0.02020   1.00
C5       0.72762    0.31608    0.02020   1.00
H1       0.75969    0.18866    -0.09955   1.00
H1       0.76726    0.19101    0.09990   1.00
H1       0.73656    0.30900    -0.09680   1.00
H1       0.73683    0.30962    0.09632   1.00
O3       0.73688    0.35332    -0.03961   1.00
O3       0.71052    0.34739    0.03901   1.00
Si1      0.77736    0.37830    -0.04247   1.00
Si1      0.66362    0.34647    0.04721   1.00
C6       0.76043    0.41413    -0.07538   1.00
C6       0.78635    0.39841    0.00402   1.00
C6       0.81649    0.35145    -0.06253   1.00
C6       0.63717    0.30449    0.03307   1.00
C6       0.66058    0.35223    0.09802   1.00
C6       0.64351    0.38836    0.02523   1.00
C6       0.73776    0.39855    -0.11194   1.00
H2       0.73869    0.42955    -0.05791   1.00
C6       0.78851    0.44656    -0.09147   1.00
H2       0.75705    0.39967    0.01642   1.00
C6       0.81133    0.37428    0.03366   1.00
C6       0.80261    0.44101    0.00664   1.00
H2       0.80308    0.33829    -0.08831   1.00
C6       0.85254    0.37513    -0.07772   1.00
C6       0.83501    0.31705    -0.03849   1.00
C6       0.63894    0.29173    -0.01071   1.00
C6       0.64079    0.26618    0.05775   1.00
H2       0.60703    0.31359    0.03788   1.00
H2       0.67173    0.32470    0.10949   1.00
C6       0.68721    0.38461    0.11622   1.00
C6       0.61905    0.35786    0.11607   1.00
H2       0.64922    0.41161    0.04625   1.00
C6       0.66315    0.40231    -0.01336   1.00
C6       0.59846    0.38911    0.01756   1.00
H2       0.71312    0.38019    -0.10346   1.00
H2       0.75680    0.38137    -0.13090   1.00
H2       0.72575    0.42257    -0.12917   1.00
H2       0.77235    0.47369    -0.09608   1.00
H2       0.81252    0.45303    -0.07178   1.00
H2       0.80117    0.43870    -0.11964   1.00
H2       0.80779    0.38564    0.06328   1.00
H2       0.80250    0.34380    0.03468   1.00
H2       0.84233    0.37572    0.02648   1.00
H2       0.78374    0.46163    -0.00862   1.00
H2       0.80404    0.45104    0.03692   1.00
H2       0.83202    0.44287    -0.00550   1.00
H2       0.86388    0.39455    -0.05514   1.00
H2       0.87637    0.35605    -0.08708   1.00
H2       0.84512    0.39229    -0.10332   1.00
H2       0.85812    0.32712    -0.01902   1.00
H2       0.81411    0.30140    -0.02068   1.00
H2       0.84808    0.29567    -0.05828   1.00
H2       0.66485    0.27439    -0.01688   1.00
H2       0.61368    0.27368    -0.01809   1.00
H2       0.63867    0.31658    -0.03048   1.00
H2       0.61877    0.24489    0.04875   1.00
H2       0.66908    0.25222    0.05426   1.00
H2       0.63599    0.27138    0.08878   1.00
H2       0.68835    0.38155    0.14798   1.00
H2       0.71721    0.38232    0.10565   1.00
H2       0.67657    0.41389    0.10965   1.00
H2       0.59864    0.33567    0.10584   1.00
H2       0.62031    0.35537    0.14788   1.00
H2       0.60714    0.38660    0.10915   1.00
H2       0.66073    0.38067    -0.03656   1.00
H2       0.65048    0.42963    -0.02381   1.00
H2       0.69395    0.40773    -0.00834   1.00
H2       0.58881    0.41846    0.00956   1.00
H2       0.59035    0.36947    -0.00622   1.00
H2       0.58194    0.38077    0.04343   1.00
