data_IRMOF10_SG202_Ligand3_label_p.

_audit_creation_method             'generated by an auxiliary program of Tobunporous'

_symmetry_space_group_name_H-M     'P 1'
_symmetry_Int_Tables_number        1
_symmetry_cell_setting             triclinic

_cell_length_a                    34.2800
_cell_length_b                    34.2800
_cell_length_c                    34.2800
_cell_angle_alpha                 90.0000
_cell_angle_beta                  90.0000
_cell_angle_gamma                 90.0000

loop_
_atom_site_label
_atom_site_fract_x
_atom_site_fract_y
_atom_site_fract_z
_atom_site_occupancy
O1       0.75000    0.75000    0.75000   1.00
Zn1      0.71720    0.78280    0.78280   1.00
Zn1      0.78280    0.71720    0.78280   1.00
Zn1      0.78280    0.78280    0.71720   1.00
Zn1      0.71720    0.71720    0.71720   1.00
O2       0.72650    0.77350    0.83820   1.00
O2       0.72650    0.83820    0.77350   1.00
O2       0.66180    0.77350    0.77350   1.00
O2       0.77350    0.72650    0.83820   1.00
O2       0.83820    0.72650    0.77350   1.00
O2       0.77350    0.66180    0.77350   1.00
O2       0.77350    0.83820    0.72650   1.00
O2       0.83820    0.77350    0.72650   1.00
O2       0.77350    0.77350    0.66180   1.00
O2       0.66180    0.72650    0.72650   1.00
O2       0.72650    0.66180    0.72650   1.00
O2       0.72650    0.72650    0.66180   1.00
C1       0.75000    0.75000    0.85520   1.00
C1       0.75000    0.85520    0.75000   1.00
C1       0.64480    0.75000    0.75000   1.00
C1       0.85520    0.75000    0.75000   1.00
C1       0.75000    0.64480    0.75000   1.00
C1       0.75000    0.75000    0.64480   1.00
O1       0.25000    0.25000    0.75000   1.00
Zn1      0.21720    0.28280    0.78280   1.00
Zn1      0.28280    0.21720    0.78280   1.00
Zn1      0.28280    0.28280    0.71720   1.00
Zn1      0.21720    0.21720    0.71720   1.00
O2       0.22650    0.27350    0.83820   1.00
O2       0.22650    0.33820    0.77350   1.00
O2       0.16180    0.27350    0.77350   1.00
O2       0.27350    0.22650    0.83820   1.00
O2       0.33820    0.22650    0.77350   1.00
O2       0.27350    0.16180    0.77350   1.00
O2       0.27350    0.33820    0.72650   1.00
O2       0.33820    0.27350    0.72650   1.00
O2       0.27350    0.27350    0.66180   1.00
O2       0.16180    0.22650    0.72650   1.00
O2       0.22650    0.16180    0.72650   1.00
O2       0.22650    0.22650    0.66180   1.00
C1       0.25000    0.25000    0.85520   1.00
C1       0.25000    0.35520    0.75000   1.00
C1       0.14480    0.25000    0.75000   1.00
C1       0.35520    0.25000    0.75000   1.00
C1       0.25000    0.14480    0.75000   1.00
C1       0.25000    0.25000    0.64480   1.00
O1       0.25000    0.75000    0.25000   1.00
Zn1      0.21720    0.78280    0.28280   1.00
Zn1      0.28280    0.71720    0.28280   1.00
Zn1      0.28280    0.78280    0.21720   1.00
Zn1      0.21720    0.71720    0.21720   1.00
O2       0.22650    0.77350    0.33820   1.00
O2       0.22650    0.83820    0.27350   1.00
O2       0.16180    0.77350    0.27350   1.00
O2       0.27350    0.72650    0.33820   1.00
O2       0.33820    0.72650    0.27350   1.00
O2       0.27350    0.66180    0.27350   1.00
O2       0.27350    0.83820    0.22650   1.00
O2       0.33820    0.77350    0.22650   1.00
O2       0.27350    0.77350    0.16180   1.00
O2       0.16180    0.72650    0.22650   1.00
O2       0.22650    0.66180    0.22650   1.00
O2       0.22650    0.72650    0.16180   1.00
C1       0.25000    0.75000    0.35520   1.00
C1       0.25000    0.85520    0.25000   1.00
C1       0.14480    0.75000    0.25000   1.00
C1       0.35520    0.75000    0.25000   1.00
C1       0.25000    0.64480    0.25000   1.00
C1       0.25000    0.75000    0.14480   1.00
O1       0.75000    0.25000    0.25000   1.00
Zn1      0.71720    0.28280    0.28280   1.00
Zn1      0.78280    0.21720    0.28280   1.00
Zn1      0.78280    0.28280    0.21720   1.00
Zn1      0.71720    0.21720    0.21720   1.00
O2       0.72650    0.27350    0.33820   1.00
O2       0.72650    0.33820    0.27350   1.00
O2       0.66180    0.27350    0.27350   1.00
O2       0.77350    0.22650    0.33820   1.00
O2       0.83820    0.22650    0.27350   1.00
O2       0.77350    0.16180    0.27350   1.00
O2       0.77350    0.33820    0.22650   1.00
O2       0.83820    0.27350    0.22650   1.00
O2       0.77350    0.27350    0.16180   1.00
O2       0.66180    0.22650    0.22650   1.00
O2       0.72650    0.16180    0.22650   1.00
O2       0.72650    0.22650    0.16180   1.00
C1       0.75000    0.25000    0.35520   1.00
C1       0.75000    0.35520    0.25000   1.00
C1       0.64480    0.25000    0.25000   1.00
C1       0.85520    0.25000    0.25000   1.00
C1       0.75000    0.14480    0.25000   1.00
C1       0.75000    0.25000    0.14480   1.00
O1       0.25000    0.25000    0.25000   1.00
Zn1      0.28280    0.21720    0.21720   1.00
Zn1      0.21720    0.28280    0.21720   1.00
Zn1      0.21720    0.21720    0.28280   1.00
Zn1      0.28280    0.28280    0.28280   1.00
O2       0.27350    0.22650    0.16180   1.00
O2       0.27350    0.16180    0.22650   1.00
O2       0.33820    0.22650    0.22650   1.00
O2       0.22650    0.27350    0.16180   1.00
O2       0.16180    0.27350    0.22650   1.00
O2       0.22650    0.33820    0.22650   1.00
O2       0.22650    0.16180    0.27350   1.00
O2       0.16180    0.22650    0.27350   1.00
O2       0.22650    0.22650    0.33820   1.00
O2       0.33820    0.27350    0.27350   1.00
O2       0.27350    0.33820    0.27350   1.00
O2       0.27350    0.27350    0.33820   1.00
C1       0.25000    0.25000    0.14480   1.00
C1       0.25000    0.14480    0.25000   1.00
C1       0.35520    0.25000    0.25000   1.00
C1       0.14480    0.25000    0.25000   1.00
C1       0.25000    0.35520    0.25000   1.00
C1       0.25000    0.25000    0.35520   1.00
O1       0.75000    0.75000    0.25000   1.00
Zn1      0.78280    0.71720    0.21720   1.00
Zn1      0.71720    0.78280    0.21720   1.00
Zn1      0.71720    0.71720    0.28280   1.00
Zn1      0.78280    0.78280    0.28280   1.00
O2       0.77350    0.72650    0.16180   1.00
O2       0.77350    0.66180    0.22650   1.00
O2       0.83820    0.72650    0.22650   1.00
O2       0.72650    0.77350    0.16180   1.00
O2       0.66180    0.77350    0.22650   1.00
O2       0.72650    0.83820    0.22650   1.00
O2       0.72650    0.66180    0.27350   1.00
O2       0.66180    0.72650    0.27350   1.00
O2       0.72650    0.72650    0.33820   1.00
O2       0.83820    0.77350    0.27350   1.00
O2       0.77350    0.83820    0.27350   1.00
O2       0.77350    0.77350    0.33820   1.00
C1       0.75000    0.75000    0.14480   1.00
C1       0.75000    0.64480    0.25000   1.00
C1       0.85520    0.75000    0.25000   1.00
C1       0.64480    0.75000    0.25000   1.00
C1       0.75000    0.85520    0.25000   1.00
C1       0.75000    0.75000    0.35520   1.00
O1       0.75000    0.25000    0.75000   1.00
Zn1      0.78280    0.21720    0.71720   1.00
Zn1      0.71720    0.28280    0.71720   1.00
Zn1      0.71720    0.21720    0.78280   1.00
Zn1      0.78280    0.28280    0.78280   1.00
O2       0.77350    0.22650    0.66180   1.00
O2       0.77350    0.16180    0.72650   1.00
O2       0.83820    0.22650    0.72650   1.00
O2       0.72650    0.27350    0.66180   1.00
O2       0.66180    0.27350    0.72650   1.00
O2       0.72650    0.33820    0.72650   1.00
O2       0.72650    0.16180    0.77350   1.00
O2       0.66180    0.22650    0.77350   1.00
O2       0.72650    0.22650    0.83820   1.00
O2       0.83820    0.27350    0.77350   1.00
O2       0.77350    0.33820    0.77350   1.00
O2       0.77350    0.27350    0.83820   1.00
C1       0.75000    0.25000    0.64480   1.00
C1       0.75000    0.14480    0.75000   1.00
C1       0.85520    0.25000    0.75000   1.00
C1       0.64480    0.25000    0.75000   1.00
C1       0.75000    0.35520    0.75000   1.00
C1       0.75000    0.25000    0.85520   1.00
O1       0.25000    0.75000    0.75000   1.00
Zn1      0.28280    0.71720    0.71720   1.00
Zn1      0.21720    0.78280    0.71720   1.00
Zn1      0.21720    0.71720    0.78280   1.00
Zn1      0.28280    0.78280    0.78280   1.00
O2       0.27350    0.72650    0.66180   1.00
O2       0.27350    0.66180    0.72650   1.00
O2       0.33820    0.72650    0.72650   1.00
O2       0.22650    0.77350    0.66180   1.00
O2       0.16180    0.77350    0.72650   1.00
O2       0.22650    0.83820    0.72650   1.00
O2       0.22650    0.66180    0.77350   1.00
O2       0.16180    0.72650    0.77350   1.00
O2       0.22650    0.72650    0.83820   1.00
O2       0.33820    0.77350    0.77350   1.00
O2       0.27350    0.83820    0.77350   1.00
O2       0.27350    0.77350    0.83820   1.00
C1       0.25000    0.75000    0.64480   1.00
C1       0.25000    0.64480    0.75000   1.00
C1       0.35520    0.75000    0.75000   1.00
C1       0.14480    0.75000    0.75000   1.00
C1       0.25000    0.85520    0.75000   1.00
C1       0.25000    0.75000    0.85520   1.00
C4       0.74815    0.74758    1.02084   1.00
C4       0.74804    0.74830    0.97912   1.00
C3       0.71569    0.73563    1.04364   1.00
C3       0.71441    0.74058    0.95616   1.00
C3       0.78228    0.76001    1.04123   1.00
C3       0.78336    0.75710    0.95886   1.00
C2       0.75003    0.74880    1.10512   1.00
C2       0.74997    0.75120    0.89488   1.00
C3       0.71649    0.73642    1.08462   1.00
C3       0.71542    0.74162    0.91519   1.00
C3       0.78276    0.75990    1.08258   1.00
C3       0.78334    0.75964    0.91762   1.00
H1       0.69055    0.72587    1.03115   1.00
H1       0.68815    0.73421    0.96852   1.00
C5       0.81577    0.77231    1.02020   1.00
C5       0.81841    0.76366    0.97980   1.00
H1       0.69203    0.72771    1.09955   1.00
H1       0.69028    0.73545    0.90010   1.00
H1       0.80782    0.76786    1.09680   1.00
H1       0.80822    0.76841    0.90368   1.00
O3       0.84604    0.79030    1.03961   1.00
O3       0.85409    0.76451    0.96099   1.00
Si1      0.84742    0.83785    1.04247   1.00
Si1      0.87673    0.72343    0.95279   1.00
C6       0.88692    0.84110    1.07538   1.00
C6       0.86035    0.85569    0.99598   1.00
C6       0.80460    0.85831    1.06253   1.00
C6       0.85361    0.67953    0.96693   1.00
C6       0.88324    0.72368    0.90198   1.00
C6       0.92307    0.72696    0.97477   1.00
C6       0.88477    0.81368    1.11194   1.00
H2       0.91114    0.82999    1.05791   1.00
C6       0.90097    0.88164    1.09147   1.00
H2       0.87609    0.83095    0.98358   1.00
C6       0.82697    0.86526    0.96634   1.00
C6       0.88911    0.89107    0.99336   1.00
H2       0.79992    0.84012    1.08831   1.00
C6       0.80709    0.90137    1.07772   1.00
C6       0.76556    0.85715    1.03849   1.00
C6       0.84167    0.67469    1.01071   1.00
C6       0.81862    0.66352    0.94225   1.00
H2       0.87656    0.65798    0.96212   1.00
H2       0.85383    0.71957    0.89051   1.00
C6       0.89798    0.76293    0.88378   1.00
C6       0.90889    0.69053    0.88393   1.00
H2       0.94035    0.74353    0.95375   1.00
C6       0.92532    0.75095    1.01336   1.00
C6       0.94624    0.68832    0.98244   1.00
H2       0.88119    0.78316    1.10346   1.00
H2       0.86037    0.82158    1.13090   1.00
H2       0.91157    0.81528    1.12917   1.00
H2       0.93254    0.88120    1.09608   1.00
H2       0.89456    0.90566    1.07178   1.00
H2       0.88782    0.88867    1.11964   1.00
H2       0.83857    0.86787    0.93672   1.00
H2       0.80498    0.84237    0.96532   1.00
H2       0.81271    0.89282    0.97352   1.00
H2       0.91640    0.88504    1.00862   1.00
H2       0.89708    0.89733    0.96308   1.00
H2       0.87601    0.91747    1.00550   1.00
H2       0.81824    0.92090    1.05514   1.00
H2       0.77865    0.91247    1.08708   1.00
H2       0.82566    0.90352    1.10332   1.00
H2       0.76272    0.88220    1.01902   1.00
H2       0.76245    0.83122    1.02068   1.00
H2       0.74051    0.85777    1.05828   1.00
H2       0.81370    0.68846    1.01688   1.00
H2       0.83867    0.64379    1.01809   1.00
H2       0.86333    0.68688    1.03048   1.00
H2       0.81119    0.63380    0.95125   1.00
H2       0.79238    0.68103    0.94574   1.00
H2       0.82553    0.66195    0.91122   1.00
H2       0.89475    0.76239    0.85202   1.00
H2       0.88099    0.78777    0.89435   1.00
H2       0.92865    0.76836    0.89035   1.00
H2       0.89988    0.66176    0.89416   1.00
H2       0.90610    0.69038    0.85212   1.00
H2       0.93973    0.69459    0.89085   1.00
H2       0.90780    0.73803    1.03656   1.00
H2       0.95532    0.75364    1.02381   1.00
H2       0.91462    0.78033    1.00834   1.00
H2       0.97649    0.69464    0.99044   1.00
H2       0.93329    0.67148    1.00622   1.00
H2       0.94728    0.66985    0.95657   1.00
C4       0.74758    1.02084    0.74815   1.00
C4       0.74830    0.97912    0.74804   1.00
C3       0.73563    1.04364    0.71569   1.00
C3       0.74058    0.95616    0.71441   1.00
C3       0.76001    1.04123    0.78228   1.00
C3       0.75710    0.95886    0.78336   1.00
C2       0.74880    1.10512    0.75003   1.00
C2       0.75120    0.89488    0.74997   1.00
C3       0.73642    1.08462    0.71649   1.00
C3       0.74162    0.91519    0.71542   1.00
C3       0.75990    1.08258    0.78276   1.00
C3       0.75964    0.91762    0.78334   1.00
H1       0.72587    1.03115    0.69055   1.00
H1       0.73421    0.96852    0.68815   1.00
C5       0.77231    1.02020    0.81577   1.00
C5       0.76366    0.97980    0.81841   1.00
H1       0.72771    1.09955    0.69203   1.00
H1       0.73545    0.90010    0.69028   1.00
H1       0.76786    1.09680    0.80782   1.00
H1       0.76841    0.90368    0.80822   1.00
O3       0.79030    1.03961    0.84604   1.00
O3       0.76451    0.96099    0.85409   1.00
Si1      0.83785    1.04247    0.84742   1.00
Si1      0.72343    0.95279    0.87673   1.00
C6       0.84110    1.07538    0.88692   1.00
C6       0.85569    0.99598    0.86035   1.00
C6       0.85831    1.06253    0.80460   1.00
C6       0.67953    0.96693    0.85361   1.00
C6       0.72368    0.90198    0.88324   1.00
C6       0.72696    0.97477    0.92307   1.00
C6       0.81368    1.11194    0.88477   1.00
H2       0.82999    1.05791    0.91114   1.00
C6       0.88164    1.09147    0.90097   1.00
H2       0.83095    0.98358    0.87609   1.00
C6       0.86526    0.96634    0.82697   1.00
C6       0.89107    0.99336    0.88911   1.00
H2       0.84012    1.08831    0.79992   1.00
C6       0.90137    1.07772    0.80709   1.00
C6       0.85715    1.03849    0.76556   1.00
C6       0.67469    1.01071    0.84167   1.00
C6       0.66352    0.94225    0.81862   1.00
H2       0.65798    0.96212    0.87656   1.00
H2       0.71957    0.89051    0.85383   1.00
C6       0.76293    0.88378    0.89798   1.00
C6       0.69053    0.88393    0.90889   1.00
H2       0.74353    0.95375    0.94035   1.00
C6       0.75095    1.01336    0.92532   1.00
C6       0.68832    0.98244    0.94624   1.00
H2       0.78316    1.10346    0.88119   1.00
H2       0.82158    1.13090    0.86037   1.00
H2       0.81528    1.12917    0.91157   1.00
H2       0.88120    1.09608    0.93254   1.00
H2       0.90566    1.07178    0.89456   1.00
H2       0.88867    1.11964    0.88782   1.00
H2       0.86787    0.93672    0.83857   1.00
H2       0.84237    0.96532    0.80498   1.00
H2       0.89282    0.97352    0.81271   1.00
H2       0.88504    1.00862    0.91640   1.00
H2       0.89733    0.96308    0.89708   1.00
H2       0.91747    1.00550    0.87601   1.00
H2       0.92090    1.05514    0.81824   1.00
H2       0.91247    1.08708    0.77865   1.00
H2       0.90352    1.10332    0.82566   1.00
H2       0.88220    1.01902    0.76272   1.00
H2       0.83122    1.02068    0.76245   1.00
H2       0.85777    1.05828    0.74051   1.00
H2       0.68846    1.01688    0.81370   1.00
H2       0.64379    1.01809    0.83867   1.00
H2       0.68688    1.03048    0.86333   1.00
H2       0.63380    0.95125    0.81119   1.00
H2       0.68103    0.94574    0.79238   1.00
H2       0.66195    0.91122    0.82553   1.00
H2       0.76239    0.85202    0.89475   1.00
H2       0.78777    0.89435    0.88099   1.00
H2       0.76836    0.89035    0.92865   1.00
H2       0.66176    0.89416    0.89988   1.00
H2       0.69038    0.85212    0.90610   1.00
H2       0.69459    0.89085    0.93973   1.00
H2       0.73803    1.03656    0.90780   1.00
H2       0.75364    1.02381    0.95532   1.00
H2       0.78033    1.00834    0.91462   1.00
H2       0.69464    0.99044    0.97649   1.00
H2       0.67148    1.00622    0.93329   1.00
H2       0.66985    0.95657    0.94728   1.00
C4       0.47916    0.74815    0.75242   1.00
C4       0.52088    0.74804    0.75170   1.00
C3       0.45636    0.71569    0.76437   1.00
C3       0.54384    0.71441    0.75942   1.00
C3       0.45877    0.78228    0.73999   1.00
C3       0.54114    0.78336    0.74290   1.00
C2       0.39488    0.75003    0.75120   1.00
C2       0.60512    0.74997    0.74880   1.00
C3       0.41538    0.71649    0.76358   1.00
C3       0.58481    0.71542    0.75838   1.00
C3       0.41742    0.78276    0.74010   1.00
C3       0.58238    0.78334    0.74036   1.00
H1       0.46885    0.69055    0.77413   1.00
H1       0.53148    0.68815    0.76579   1.00
C5       0.47980    0.81577    0.72769   1.00
C5       0.52020    0.81841    0.73634   1.00
H1       0.40045    0.69203    0.77229   1.00
H1       0.59990    0.69028    0.76455   1.00
H1       0.40320    0.80782    0.73214   1.00
H1       0.59632    0.80822    0.73159   1.00
O3       0.46039    0.84604    0.70970   1.00
O3       0.53901    0.85409    0.73549   1.00
Si1      0.45753    0.84742    0.66215   1.00
Si1      0.54721    0.87673    0.77657   1.00
C6       0.42462    0.88692    0.65890   1.00
C6       0.50402    0.86035    0.64431   1.00
C6       0.43747    0.80460    0.64169   1.00
C6       0.53307    0.85361    0.82047   1.00
C6       0.59802    0.88324    0.77632   1.00
C6       0.52523    0.92307    0.77304   1.00
C6       0.38806    0.88477    0.68632   1.00
H2       0.44209    0.91114    0.67001   1.00
C6       0.40853    0.90097    0.61836   1.00
H2       0.51642    0.87609    0.66905   1.00
C6       0.53366    0.82697    0.63474   1.00
C6       0.50664    0.88911    0.60893   1.00
H2       0.41169    0.79992    0.65988   1.00
C6       0.42228    0.80709    0.59863   1.00
C6       0.46151    0.76556    0.64285   1.00
C6       0.48929    0.84167    0.82531   1.00
C6       0.55775    0.81862    0.83648   1.00
H2       0.53788    0.87656    0.84202   1.00
H2       0.60949    0.85383    0.78043   1.00
C6       0.61622    0.89798    0.73707   1.00
C6       0.61607    0.90889    0.80947   1.00
H2       0.54625    0.94035    0.75647   1.00
C6       0.48664    0.92532    0.74905   1.00
C6       0.51756    0.94624    0.81168   1.00
H2       0.39654    0.88119    0.71684   1.00
H2       0.36910    0.86037    0.67842   1.00
H2       0.37083    0.91157    0.68472   1.00
H2       0.40392    0.93254    0.61880   1.00
H2       0.42822    0.89456    0.59434   1.00
H2       0.38036    0.88782    0.61133   1.00
H2       0.56328    0.83857    0.63213   1.00
H2       0.53468    0.80498    0.65763   1.00
H2       0.52648    0.81271    0.60718   1.00
H2       0.49138    0.91640    0.61496   1.00
H2       0.53692    0.89708    0.60267   1.00
H2       0.49450    0.87601    0.58253   1.00
H2       0.44486    0.81824    0.57910   1.00
H2       0.41292    0.77865    0.58753   1.00
H2       0.39668    0.82566    0.59648   1.00
H2       0.48098    0.76272    0.61780   1.00
H2       0.47932    0.76245    0.66878   1.00
H2       0.44172    0.74051    0.64223   1.00
H2       0.48312    0.81370    0.81154   1.00
H2       0.48191    0.83867    0.85621   1.00
H2       0.46952    0.86333    0.81312   1.00
H2       0.54875    0.81119    0.86620   1.00
H2       0.55426    0.79238    0.81897   1.00
H2       0.58878    0.82553    0.83805   1.00
H2       0.64798    0.89475    0.73761   1.00
H2       0.60565    0.88099    0.71223   1.00
H2       0.60965    0.92865    0.73164   1.00
H2       0.60584    0.89988    0.83824   1.00
H2       0.64788    0.90610    0.80962   1.00
H2       0.60915    0.93973    0.80541   1.00
H2       0.46344    0.90780    0.76197   1.00
H2       0.47619    0.95532    0.74636   1.00
H2       0.49166    0.91462    0.71967   1.00
H2       0.50956    0.97649    0.80536   1.00
H2       0.49378    0.93329    0.82852   1.00
H2       0.54343    0.94728    0.83015   1.00
C4       1.02084    0.74815    0.74758   1.00
C4       0.97912    0.74804    0.74830   1.00
C3       1.04364    0.71569    0.73563   1.00
C3       0.95616    0.71441    0.74058   1.00
C3       1.04123    0.78228    0.76001   1.00
C3       0.95886    0.78336    0.75710   1.00
C2       1.10512    0.75003    0.74880   1.00
C2       0.89488    0.74997    0.75120   1.00
C3       1.08462    0.71649    0.73642   1.00
C3       0.91519    0.71542    0.74162   1.00
C3       1.08258    0.78276    0.75990   1.00
C3       0.91762    0.78334    0.75964   1.00
H1       1.03115    0.69055    0.72587   1.00
H1       0.96852    0.68815    0.73421   1.00
C5       1.02020    0.81577    0.77231   1.00
C5       0.97980    0.81841    0.76366   1.00
H1       1.09955    0.69203    0.72771   1.00
H1       0.90010    0.69028    0.73545   1.00
H1       1.09680    0.80782    0.76786   1.00
H1       0.90368    0.80822    0.76841   1.00
O3       1.03961    0.84604    0.79030   1.00
O3       0.96099    0.85409    0.76451   1.00
Si1      1.04247    0.84742    0.83785   1.00
Si1      0.95279    0.87673    0.72343   1.00
C6       1.07538    0.88692    0.84110   1.00
C6       0.99598    0.86035    0.85569   1.00
C6       1.06253    0.80460    0.85831   1.00
C6       0.96693    0.85361    0.67953   1.00
C6       0.90198    0.88324    0.72368   1.00
C6       0.97477    0.92307    0.72696   1.00
C6       1.11194    0.88477    0.81368   1.00
H2       1.05791    0.91114    0.82999   1.00
C6       1.09147    0.90097    0.88164   1.00
H2       0.98358    0.87609    0.83095   1.00
C6       0.96634    0.82697    0.86526   1.00
C6       0.99336    0.88911    0.89107   1.00
H2       1.08831    0.79992    0.84012   1.00
C6       1.07772    0.80709    0.90137   1.00
C6       1.03849    0.76556    0.85715   1.00
C6       1.01071    0.84167    0.67469   1.00
C6       0.94225    0.81862    0.66352   1.00
H2       0.96212    0.87656    0.65798   1.00
H2       0.89051    0.85383    0.71957   1.00
C6       0.88378    0.89798    0.76293   1.00
C6       0.88393    0.90889    0.69053   1.00
H2       0.95375    0.94035    0.74353   1.00
C6       1.01336    0.92532    0.75095   1.00
C6       0.98244    0.94624    0.68832   1.00
H2       1.10346    0.88119    0.78316   1.00
H2       1.13090    0.86037    0.82158   1.00
H2       1.12917    0.91157    0.81528   1.00
H2       1.09608    0.93254    0.88120   1.00
H2       1.07178    0.89456    0.90566   1.00
H2       1.11964    0.88782    0.88867   1.00
H2       0.93672    0.83857    0.86787   1.00
H2       0.96532    0.80498    0.84237   1.00
H2       0.97352    0.81271    0.89282   1.00
H2       1.00862    0.91640    0.88504   1.00
H2       0.96308    0.89708    0.89733   1.00
H2       1.00550    0.87601    0.91747   1.00
H2       1.05514    0.81824    0.92090   1.00
H2       1.08708    0.77865    0.91247   1.00
H2       1.10332    0.82566    0.90352   1.00
H2       1.01902    0.76272    0.88220   1.00
H2       1.02068    0.76245    0.83122   1.00
H2       1.05828    0.74051    0.85777   1.00
H2       1.01688    0.81370    0.68846   1.00
H2       1.01809    0.83867    0.64379   1.00
H2       1.03048    0.86333    0.68688   1.00
H2       0.95125    0.81119    0.63380   1.00
H2       0.94574    0.79238    0.68103   1.00
H2       0.91122    0.82553    0.66195   1.00
H2       0.85202    0.89475    0.76239   1.00
H2       0.89435    0.88099    0.78777   1.00
H2       0.89035    0.92865    0.76836   1.00
H2       0.89416    0.89988    0.66176   1.00
H2       0.85212    0.90610    0.69038   1.00
H2       0.89085    0.93973    0.69459   1.00
H2       1.03656    0.90780    0.73803   1.00
H2       1.02381    0.95532    0.75364   1.00
H2       1.00834    0.91462    0.78033   1.00
H2       0.99044    0.97649    0.69464   1.00
H2       1.00622    0.93329    0.67148   1.00
H2       0.95657    0.94728    0.66985   1.00
C4       0.75242    0.47916    0.74815   1.00
C4       0.75170    0.52088    0.74804   1.00
C3       0.76437    0.45636    0.71569   1.00
C3       0.75942    0.54384    0.71441   1.00
C3       0.73999    0.45877    0.78228   1.00
C3       0.74290    0.54114    0.78336   1.00
C2       0.75120    0.39488    0.75003   1.00
C2       0.74880    0.60512    0.74997   1.00
C3       0.76358    0.41538    0.71649   1.00
C3       0.75838    0.58481    0.71542   1.00
C3       0.74010    0.41742    0.78276   1.00
C3       0.74036    0.58238    0.78334   1.00
H1       0.77413    0.46885    0.69055   1.00
H1       0.76579    0.53148    0.68815   1.00
C5       0.72769    0.47980    0.81577   1.00
C5       0.73634    0.52020    0.81841   1.00
H1       0.77229    0.40045    0.69203   1.00
H1       0.76455    0.59990    0.69028   1.00
H1       0.73214    0.40320    0.80782   1.00
H1       0.73159    0.59632    0.80822   1.00
O3       0.70970    0.46039    0.84604   1.00
O3       0.73549    0.53901    0.85409   1.00
Si1      0.66215    0.45753    0.84742   1.00
Si1      0.77657    0.54721    0.87673   1.00
C6       0.65890    0.42462    0.88692   1.00
C6       0.64431    0.50402    0.86035   1.00
C6       0.64169    0.43747    0.80460   1.00
C6       0.82047    0.53307    0.85361   1.00
C6       0.77632    0.59802    0.88324   1.00
C6       0.77304    0.52523    0.92307   1.00
C6       0.68632    0.38806    0.88477   1.00
H2       0.67001    0.44209    0.91114   1.00
C6       0.61836    0.40853    0.90097   1.00
H2       0.66905    0.51642    0.87609   1.00
C6       0.63474    0.53366    0.82697   1.00
C6       0.60893    0.50664    0.88911   1.00
H2       0.65988    0.41169    0.79992   1.00
C6       0.59863    0.42228    0.80709   1.00
C6       0.64285    0.46151    0.76556   1.00
C6       0.82531    0.48929    0.84167   1.00
C6       0.83648    0.55775    0.81862   1.00
H2       0.84202    0.53788    0.87656   1.00
H2       0.78043    0.60949    0.85383   1.00
C6       0.73707    0.61622    0.89798   1.00
C6       0.80947    0.61607    0.90889   1.00
H2       0.75647    0.54625    0.94035   1.00
C6       0.74905    0.48664    0.92532   1.00
C6       0.81168    0.51756    0.94624   1.00
H2       0.71684    0.39654    0.88119   1.00
H2       0.67842    0.36910    0.86037   1.00
H2       0.68472    0.37083    0.91157   1.00
H2       0.61880    0.40392    0.93254   1.00
H2       0.59434    0.42822    0.89456   1.00
H2       0.61133    0.38036    0.88782   1.00
H2       0.63213    0.56328    0.83857   1.00
H2       0.65763    0.53468    0.80498   1.00
H2       0.60718    0.52648    0.81271   1.00
H2       0.61496    0.49138    0.91640   1.00
H2       0.60267    0.53692    0.89708   1.00
H2       0.58253    0.49450    0.87601   1.00
H2       0.57910    0.44486    0.81824   1.00
H2       0.58753    0.41292    0.77865   1.00
H2       0.59648    0.39668    0.82566   1.00
H2       0.61780    0.48098    0.76272   1.00
H2       0.66878    0.47932    0.76245   1.00
H2       0.64223    0.44172    0.74051   1.00
H2       0.81154    0.48312    0.81370   1.00
H2       0.85621    0.48191    0.83867   1.00
H2       0.81312    0.46952    0.86333   1.00
H2       0.86620    0.54875    0.81119   1.00
H2       0.81897    0.55426    0.79238   1.00
H2       0.83805    0.58878    0.82553   1.00
H2       0.73761    0.64798    0.89475   1.00
H2       0.71223    0.60565    0.88099   1.00
H2       0.73164    0.60965    0.92865   1.00
H2       0.83824    0.60584    0.89988   1.00
H2       0.80962    0.64788    0.90610   1.00
H2       0.80541    0.60915    0.93973   1.00
H2       0.76197    0.46344    0.90780   1.00
H2       0.74636    0.47619    0.95532   1.00
H2       0.71967    0.49166    0.91462   1.00
H2       0.80536    0.50956    0.97649   1.00
H2       0.82852    0.49378    0.93329   1.00
H2       0.83015    0.54343    0.94728   1.00
C4       0.74815    0.75242    0.47916   1.00
C4       0.74804    0.75170    0.52088   1.00
C3       0.71569    0.76437    0.45636   1.00
C3       0.71441    0.75942    0.54384   1.00
C3       0.78228    0.73999    0.45877   1.00
C3       0.78336    0.74290    0.54114   1.00
C2       0.75003    0.75120    0.39488   1.00
C2       0.74997    0.74880    0.60512   1.00
C3       0.71649    0.76358    0.41538   1.00
C3       0.71542    0.75838    0.58481   1.00
C3       0.78276    0.74010    0.41742   1.00
C3       0.78334    0.74036    0.58238   1.00
H1       0.69055    0.77413    0.46885   1.00
H1       0.68815    0.76579    0.53148   1.00
C5       0.81577    0.72769    0.47980   1.00
C5       0.81841    0.73634    0.52020   1.00
H1       0.69203    0.77229    0.40045   1.00
H1       0.69028    0.76455    0.59990   1.00
H1       0.80782    0.73214    0.40320   1.00
H1       0.80822    0.73159    0.59632   1.00
O3       0.84604    0.70970    0.46039   1.00
O3       0.85409    0.73549    0.53901   1.00
Si1      0.84742    0.66215    0.45753   1.00
Si1      0.87673    0.77657    0.54721   1.00
C6       0.88692    0.65890    0.42462   1.00
C6       0.86035    0.64431    0.50402   1.00
C6       0.80460    0.64169    0.43747   1.00
C6       0.85361    0.82047    0.53307   1.00
C6       0.88324    0.77632    0.59802   1.00
C6       0.92307    0.77304    0.52523   1.00
C6       0.88477    0.68632    0.38806   1.00
H2       0.91114    0.67001    0.44209   1.00
C6       0.90097    0.61836    0.40853   1.00
H2       0.87609    0.66905    0.51642   1.00
C6       0.82697    0.63474    0.53366   1.00
C6       0.88911    0.60893    0.50664   1.00
H2       0.79992    0.65988    0.41169   1.00
C6       0.80709    0.59863    0.42228   1.00
C6       0.76556    0.64285    0.46151   1.00
C6       0.84167    0.82531    0.48929   1.00
C6       0.81862    0.83648    0.55775   1.00
H2       0.87656    0.84202    0.53788   1.00
H2       0.85383    0.78043    0.60949   1.00
C6       0.89798    0.73707    0.61622   1.00
C6       0.90889    0.80947    0.61607   1.00
H2       0.94035    0.75647    0.54625   1.00
C6       0.92532    0.74905    0.48664   1.00
C6       0.94624    0.81168    0.51756   1.00
H2       0.88119    0.71684    0.39654   1.00
H2       0.86037    0.67842    0.36910   1.00
H2       0.91157    0.68472    0.37083   1.00
H2       0.93254    0.61880    0.40392   1.00
H2       0.89456    0.59434    0.42822   1.00
H2       0.88782    0.61133    0.38036   1.00
H2       0.83857    0.63213    0.56328   1.00
H2       0.80498    0.65763    0.53468   1.00
H2       0.81271    0.60718    0.52648   1.00
H2       0.91640    0.61496    0.49138   1.00
H2       0.89708    0.60267    0.53692   1.00
H2       0.87601    0.58253    0.49450   1.00
H2       0.81824    0.57910    0.44486   1.00
H2       0.77865    0.58753    0.41292   1.00
H2       0.82566    0.59648    0.39668   1.00
H2       0.76272    0.61780    0.48098   1.00
H2       0.76245    0.66878    0.47932   1.00
H2       0.74051    0.64223    0.44172   1.00
H2       0.81370    0.81154    0.48312   1.00
H2       0.83867    0.85621    0.48191   1.00
H2       0.86333    0.81312    0.46952   1.00
H2       0.81119    0.86620    0.54875   1.00
H2       0.79238    0.81897    0.55426   1.00
H2       0.82553    0.83805    0.58878   1.00
H2       0.89475    0.73761    0.64798   1.00
H2       0.88099    0.71223    0.60565   1.00
H2       0.92865    0.73164    0.60965   1.00
H2       0.89988    0.83824    0.60584   1.00
H2       0.90610    0.80962    0.64788   1.00
H2       0.93973    0.80541    0.60915   1.00
H2       0.90780    0.76197    0.46344   1.00
H2       0.95532    0.74636    0.47619   1.00
H2       0.91462    0.71967    0.49166   1.00
H2       0.97649    0.80536    0.50956   1.00
H2       0.93329    0.82852    0.49378   1.00
H2       0.94728    0.83015    0.54343   1.00
C4       0.24815    0.24758    1.02084   1.00
C4       0.24804    0.24830    0.97912   1.00
C3       0.21569    0.23563    1.04364   1.00
C3       0.21441    0.24058    0.95616   1.00
C3       0.28228    0.26001    1.04123   1.00
C3       0.28336    0.25710    0.95886   1.00
C2       0.25003    0.24880    1.10512   1.00
C2       0.24997    0.25120    0.89488   1.00
C3       0.21649    0.23642    1.08462   1.00
C3       0.21542    0.24162    0.91519   1.00
C3       0.28276    0.25990    1.08258   1.00
C3       0.28334    0.25964    0.91762   1.00
H1       0.19055    0.22587    1.03115   1.00
H1       0.18815    0.23421    0.96852   1.00
C5       0.31577    0.27231    1.02020   1.00
C5       0.31841    0.26366    0.97980   1.00
H1       0.19203    0.22771    1.09955   1.00
H1       0.19028    0.23545    0.90010   1.00
H1       0.30782    0.26786    1.09680   1.00
H1       0.30822    0.26841    0.90368   1.00
O3       0.34604    0.29030    1.03961   1.00
O3       0.35409    0.26451    0.96099   1.00
Si1      0.34742    0.33785    1.04247   1.00
Si1      0.37673    0.22343    0.95279   1.00
C6       0.38692    0.34110    1.07538   1.00
C6       0.36035    0.35569    0.99598   1.00
C6       0.30460    0.35831    1.06253   1.00
C6       0.35361    0.17953    0.96693   1.00
C6       0.38324    0.22368    0.90198   1.00
C6       0.42307    0.22696    0.97477   1.00
C6       0.38477    0.31368    1.11194   1.00
H2       0.41114    0.32999    1.05791   1.00
C6       0.40097    0.38164    1.09147   1.00
H2       0.37609    0.33095    0.98358   1.00
C6       0.32697    0.36526    0.96634   1.00
C6       0.38911    0.39107    0.99336   1.00
H2       0.29992    0.34012    1.08831   1.00
C6       0.30709    0.40137    1.07772   1.00
C6       0.26556    0.35715    1.03849   1.00
C6       0.34167    0.17469    1.01071   1.00
C6       0.31862    0.16352    0.94225   1.00
H2       0.37656    0.15798    0.96212   1.00
H2       0.35383    0.21957    0.89051   1.00
C6       0.39798    0.26293    0.88378   1.00
C6       0.40889    0.19053    0.88393   1.00
H2       0.44035    0.24353    0.95375   1.00
C6       0.42532    0.25095    1.01336   1.00
C6       0.44624    0.18832    0.98244   1.00
H2       0.38119    0.28316    1.10346   1.00
H2       0.36037    0.32158    1.13090   1.00
H2       0.41157    0.31528    1.12917   1.00
H2       0.43254    0.38120    1.09608   1.00
H2       0.39456    0.40566    1.07178   1.00
H2       0.38782    0.38867    1.11964   1.00
H2       0.33857    0.36787    0.93672   1.00
H2       0.30498    0.34237    0.96532   1.00
H2       0.31271    0.39282    0.97352   1.00
H2       0.41640    0.38504    1.00862   1.00
H2       0.39708    0.39733    0.96308   1.00
H2       0.37601    0.41747    1.00550   1.00
H2       0.31824    0.42090    1.05514   1.00
H2       0.27865    0.41247    1.08708   1.00
H2       0.32566    0.40352    1.10332   1.00
H2       0.26272    0.38220    1.01902   1.00
H2       0.26245    0.33122    1.02068   1.00
H2       0.24051    0.35777    1.05828   1.00
H2       0.31370    0.18846    1.01688   1.00
H2       0.33867    0.14379    1.01809   1.00
H2       0.36333    0.18688    1.03048   1.00
H2       0.31119    0.13380    0.95125   1.00
H2       0.29238    0.18103    0.94574   1.00
H2       0.32553    0.16195    0.91122   1.00
H2       0.39475    0.26239    0.85202   1.00
H2       0.38099    0.28777    0.89435   1.00
H2       0.42865    0.26836    0.89035   1.00
H2       0.39988    0.16176    0.89416   1.00
H2       0.40610    0.19038    0.85212   1.00
H2       0.43973    0.19459    0.89085   1.00
H2       0.40780    0.23803    1.03656   1.00
H2       0.45532    0.25364    1.02381   1.00
H2       0.41462    0.28033    1.00834   1.00
H2       0.47649    0.19464    0.99044   1.00
H2       0.43329    0.17148    1.00622   1.00
H2       0.44728    0.16985    0.95657   1.00
C4       0.24758    0.52084    0.74815   1.00
C4       0.24830    0.47912    0.74804   1.00
C3       0.23563    0.54364    0.71569   1.00
C3       0.24058    0.45616    0.71441   1.00
C3       0.26001    0.54123    0.78228   1.00
C3       0.25710    0.45886    0.78336   1.00
C2       0.24880    0.60512    0.75003   1.00
C2       0.25120    0.39488    0.74997   1.00
C3       0.23642    0.58462    0.71649   1.00
C3       0.24162    0.41519    0.71542   1.00
C3       0.25990    0.58258    0.78276   1.00
C3       0.25964    0.41762    0.78334   1.00
H1       0.22587    0.53115    0.69055   1.00
H1       0.23421    0.46852    0.68815   1.00
C5       0.27231    0.52020    0.81577   1.00
C5       0.26366    0.47980    0.81841   1.00
H1       0.22771    0.59955    0.69203   1.00
H1       0.23545    0.40010    0.69028   1.00
H1       0.26786    0.59680    0.80782   1.00
H1       0.26841    0.40368    0.80822   1.00
O3       0.29030    0.53961    0.84604   1.00
O3       0.26451    0.46099    0.85409   1.00
Si1      0.33785    0.54247    0.84742   1.00
Si1      0.22343    0.45279    0.87673   1.00
C6       0.34110    0.57538    0.88692   1.00
C6       0.35569    0.49598    0.86035   1.00
C6       0.35831    0.56253    0.80460   1.00
C6       0.17953    0.46693    0.85361   1.00
C6       0.22368    0.40198    0.88324   1.00
C6       0.22696    0.47477    0.92307   1.00
C6       0.31368    0.61194    0.88477   1.00
H2       0.32999    0.55791    0.91114   1.00
C6       0.38164    0.59147    0.90097   1.00
H2       0.33095    0.48358    0.87609   1.00
C6       0.36526    0.46634    0.82697   1.00
C6       0.39107    0.49336    0.88911   1.00
H2       0.34012    0.58831    0.79992   1.00
C6       0.40137    0.57772    0.80709   1.00
C6       0.35715    0.53849    0.76556   1.00
C6       0.17469    0.51071    0.84167   1.00
C6       0.16352    0.44225    0.81862   1.00
H2       0.15798    0.46212    0.87656   1.00
H2       0.21957    0.39051    0.85383   1.00
C6       0.26293    0.38378    0.89798   1.00
C6       0.19053    0.38393    0.90889   1.00
H2       0.24353    0.45375    0.94035   1.00
C6       0.25095    0.51336    0.92532   1.00
C6       0.18832    0.48244    0.94624   1.00
H2       0.28316    0.60346    0.88119   1.00
H2       0.32158    0.63090    0.86037   1.00
H2       0.31528    0.62917    0.91157   1.00
H2       0.38120    0.59608    0.93254   1.00
H2       0.40566    0.57178    0.89456   1.00
H2       0.38867    0.61964    0.88782   1.00
H2       0.36787    0.43672    0.83857   1.00
H2       0.34237    0.46532    0.80498   1.00
H2       0.39282    0.47352    0.81271   1.00
H2       0.38504    0.50862    0.91640   1.00
H2       0.39733    0.46308    0.89708   1.00
H2       0.41747    0.50550    0.87601   1.00
H2       0.42090    0.55514    0.81824   1.00
H2       0.41247    0.58708    0.77865   1.00
H2       0.40352    0.60332    0.82566   1.00
H2       0.38220    0.51902    0.76272   1.00
H2       0.33122    0.52068    0.76245   1.00
H2       0.35777    0.55828    0.74051   1.00
H2       0.18846    0.51688    0.81370   1.00
H2       0.14379    0.51809    0.83867   1.00
H2       0.18688    0.53048    0.86333   1.00
H2       0.13380    0.45125    0.81119   1.00
H2       0.18103    0.44574    0.79238   1.00
H2       0.16195    0.41122    0.82553   1.00
H2       0.26239    0.35202    0.89475   1.00
H2       0.28777    0.39435    0.88099   1.00
H2       0.26836    0.39035    0.92865   1.00
H2       0.16176    0.39416    0.89988   1.00
H2       0.19038    0.35212    0.90610   1.00
H2       0.19459    0.39085    0.93973   1.00
H2       0.23803    0.53656    0.90780   1.00
H2       0.25364    0.52381    0.95532   1.00
H2       0.28033    0.50834    0.91462   1.00
H2       0.19464    0.49044    0.97649   1.00
H2       0.17148    0.50622    0.93329   1.00
H2       0.16985    0.45657    0.94728   1.00
C4       -0.02084   0.24815    0.75242   1.00
C4       0.02088    0.24804    0.75170   1.00
C3       -0.04364   0.21569    0.76437   1.00
C3       0.04384    0.21441    0.75942   1.00
C3       -0.04123   0.28228    0.73999   1.00
C3       0.04114    0.28336    0.74290   1.00
C2       -0.10512   0.25003    0.75120   1.00
C2       0.10512    0.24997    0.74880   1.00
C3       -0.08462   0.21649    0.76358   1.00
C3       0.08481    0.21542    0.75838   1.00
C3       -0.08258   0.28276    0.74010   1.00
C3       0.08238    0.28334    0.74036   1.00
H1       -0.03115   0.19055    0.77413   1.00
H1       0.03148    0.18815    0.76579   1.00
C5       -0.02020   0.31577    0.72769   1.00
C5       0.02020    0.31841    0.73634   1.00
H1       -0.09955   0.19203    0.77229   1.00
H1       0.09990    0.19028    0.76455   1.00
H1       -0.09680   0.30782    0.73214   1.00
H1       0.09632    0.30822    0.73159   1.00
O3       -0.03961   0.34604    0.70970   1.00
O3       0.03901    0.35409    0.73549   1.00
Si1      -0.04247   0.34742    0.66215   1.00
Si1      0.04721    0.37673    0.77657   1.00
C6       -0.07538   0.38692    0.65890   1.00
C6       0.00402    0.36035    0.64431   1.00
C6       -0.06253   0.30460    0.64169   1.00
C6       0.03307    0.35361    0.82047   1.00
C6       0.09802    0.38324    0.77632   1.00
C6       0.02523    0.42307    0.77304   1.00
C6       -0.11194   0.38477    0.68632   1.00
H2       -0.05791   0.41114    0.67001   1.00
C6       -0.09147   0.40097    0.61836   1.00
H2       0.01642    0.37609    0.66905   1.00
C6       0.03366    0.32697    0.63474   1.00
C6       0.00664    0.38911    0.60893   1.00
H2       -0.08831   0.29992    0.65988   1.00
C6       -0.07772   0.30709    0.59863   1.00
C6       -0.03849   0.26556    0.64285   1.00
C6       -0.01071   0.34167    0.82531   1.00
C6       0.05775    0.31862    0.83648   1.00
H2       0.03788    0.37656    0.84202   1.00
H2       0.10949    0.35383    0.78043   1.00
C6       0.11622    0.39798    0.73707   1.00
C6       0.11607    0.40889    0.80947   1.00
H2       0.04625    0.44035    0.75647   1.00
C6       -0.01336   0.42532    0.74905   1.00
C6       0.01756    0.44624    0.81168   1.00
H2       -0.10346   0.38119    0.71684   1.00
H2       -0.13090   0.36037    0.67842   1.00
H2       -0.12917   0.41157    0.68472   1.00
H2       -0.09608   0.43254    0.61880   1.00
H2       -0.07178   0.39456    0.59434   1.00
H2       -0.11964   0.38782    0.61133   1.00
H2       0.06328    0.33857    0.63213   1.00
H2       0.03468    0.30498    0.65763   1.00
H2       0.02648    0.31271    0.60718   1.00
H2       -0.00862   0.41640    0.61496   1.00
H2       0.03692    0.39708    0.60267   1.00
H2       -0.00550   0.37601    0.58253   1.00
H2       -0.05514   0.31824    0.57910   1.00
H2       -0.08708   0.27865    0.58753   1.00
H2       -0.10332   0.32566    0.59648   1.00
H2       -0.01902   0.26272    0.61780   1.00
H2       -0.02068   0.26245    0.66878   1.00
H2       -0.05828   0.24051    0.64223   1.00
H2       -0.01688   0.31370    0.81154   1.00
H2       -0.01809   0.33867    0.85621   1.00
H2       -0.03048   0.36333    0.81312   1.00
H2       0.04875    0.31119    0.86620   1.00
H2       0.05426    0.29238    0.81897   1.00
H2       0.08878    0.32553    0.83805   1.00
H2       0.14798    0.39475    0.73761   1.00
H2       0.10565    0.38099    0.71223   1.00
H2       0.10965    0.42865    0.73164   1.00
H2       0.10584    0.39988    0.83824   1.00
H2       0.14788    0.40610    0.80962   1.00
H2       0.10915    0.43973    0.80541   1.00
H2       -0.03656   0.40780    0.76197   1.00
H2       -0.02381   0.45532    0.74636   1.00
H2       -0.00834   0.41462    0.71967   1.00
H2       0.00956    0.47649    0.80536   1.00
H2       -0.00622   0.43329    0.82852   1.00
H2       0.04343    0.44728    0.83015   1.00
C4       0.52084    0.24815    0.74758   1.00
C4       0.47912    0.24804    0.74830   1.00
C3       0.54364    0.21569    0.73563   1.00
C3       0.45616    0.21441    0.74058   1.00
C3       0.54123    0.28228    0.76001   1.00
C3       0.45886    0.28336    0.75710   1.00
C2       0.60512    0.25003    0.74880   1.00
C2       0.39488    0.24997    0.75120   1.00
C3       0.58462    0.21649    0.73642   1.00
C3       0.41519    0.21542    0.74162   1.00
C3       0.58258    0.28276    0.75990   1.00
C3       0.41762    0.28334    0.75964   1.00
H1       0.53115    0.19055    0.72587   1.00
H1       0.46852    0.18815    0.73421   1.00
C5       0.52020    0.31577    0.77231   1.00
C5       0.47980    0.31841    0.76366   1.00
H1       0.59955    0.19203    0.72771   1.00
H1       0.40010    0.19028    0.73545   1.00
H1       0.59680    0.30782    0.76786   1.00
H1       0.40368    0.30822    0.76841   1.00
O3       0.53961    0.34604    0.79030   1.00
O3       0.46099    0.35409    0.76451   1.00
Si1      0.54247    0.34742    0.83785   1.00
Si1      0.45279    0.37673    0.72343   1.00
C6       0.57538    0.38692    0.84110   1.00
C6       0.49598    0.36035    0.85569   1.00
C6       0.56253    0.30460    0.85831   1.00
C6       0.46693    0.35361    0.67953   1.00
C6       0.40198    0.38324    0.72368   1.00
C6       0.47477    0.42307    0.72696   1.00
C6       0.61194    0.38477    0.81368   1.00
H2       0.55791    0.41114    0.82999   1.00
C6       0.59147    0.40097    0.88164   1.00
H2       0.48358    0.37609    0.83095   1.00
C6       0.46634    0.32697    0.86526   1.00
C6       0.49336    0.38911    0.89107   1.00
H2       0.58831    0.29992    0.84012   1.00
C6       0.57772    0.30709    0.90137   1.00
C6       0.53849    0.26556    0.85715   1.00
C6       0.51071    0.34167    0.67469   1.00
C6       0.44225    0.31862    0.66352   1.00
H2       0.46212    0.37656    0.65798   1.00
H2       0.39051    0.35383    0.71957   1.00
C6       0.38378    0.39798    0.76293   1.00
C6       0.38393    0.40889    0.69053   1.00
H2       0.45375    0.44035    0.74353   1.00
C6       0.51336    0.42532    0.75095   1.00
C6       0.48244    0.44624    0.68832   1.00
H2       0.60346    0.38119    0.78316   1.00
H2       0.63090    0.36037    0.82158   1.00
H2       0.62917    0.41157    0.81528   1.00
H2       0.59608    0.43254    0.88120   1.00
H2       0.57178    0.39456    0.90566   1.00
H2       0.61964    0.38782    0.88867   1.00
H2       0.43672    0.33857    0.86787   1.00
H2       0.46532    0.30498    0.84237   1.00
H2       0.47352    0.31271    0.89282   1.00
H2       0.50862    0.41640    0.88504   1.00
H2       0.46308    0.39708    0.89733   1.00
H2       0.50550    0.37601    0.91747   1.00
H2       0.55514    0.31824    0.92090   1.00
H2       0.58708    0.27865    0.91247   1.00
H2       0.60332    0.32566    0.90352   1.00
H2       0.51902    0.26272    0.88220   1.00
H2       0.52068    0.26245    0.83122   1.00
H2       0.55828    0.24051    0.85777   1.00
H2       0.51688    0.31370    0.68846   1.00
H2       0.51809    0.33867    0.64379   1.00
H2       0.53048    0.36333    0.68688   1.00
H2       0.45125    0.31119    0.63380   1.00
H2       0.44574    0.29238    0.68103   1.00
H2       0.41122    0.32553    0.66195   1.00
H2       0.35202    0.39475    0.76239   1.00
H2       0.39435    0.38099    0.78777   1.00
H2       0.39035    0.42865    0.76836   1.00
H2       0.39416    0.39988    0.66176   1.00
H2       0.35212    0.40610    0.69038   1.00
H2       0.39085    0.43973    0.69459   1.00
H2       0.53656    0.40780    0.73803   1.00
H2       0.52381    0.45532    0.75364   1.00
H2       0.50834    0.41462    0.78033   1.00
H2       0.49044    0.47649    0.69464   1.00
H2       0.50622    0.43329    0.67148   1.00
H2       0.45657    0.44728    0.66985   1.00
C4       0.25242    -0.02084   0.74815   1.00
C4       0.25170    0.02088    0.74804   1.00
C3       0.26437    -0.04364   0.71569   1.00
C3       0.25942    0.04384    0.71441   1.00
C3       0.23999    -0.04123   0.78228   1.00
C3       0.24290    0.04114    0.78336   1.00
C2       0.25120    -0.10512   0.75003   1.00
C2       0.24880    0.10512    0.74997   1.00
C3       0.26358    -0.08462   0.71649   1.00
C3       0.25838    0.08481    0.71542   1.00
C3       0.24010    -0.08258   0.78276   1.00
C3       0.24036    0.08238    0.78334   1.00
H1       0.27413    -0.03115   0.69055   1.00
H1       0.26579    0.03148    0.68815   1.00
C5       0.22769    -0.02020   0.81577   1.00
C5       0.23634    0.02020    0.81841   1.00
H1       0.27229    -0.09955   0.69203   1.00
H1       0.26455    0.09990    0.69028   1.00
H1       0.23214    -0.09680   0.80782   1.00
H1       0.23159    0.09632    0.80822   1.00
O3       0.20970    -0.03961   0.84604   1.00
O3       0.23549    0.03901    0.85409   1.00
Si1      0.16215    -0.04247   0.84742   1.00
Si1      0.27657    0.04721    0.87673   1.00
C6       0.15890    -0.07538   0.88692   1.00
C6       0.14431    0.00402    0.86035   1.00
C6       0.14169    -0.06253   0.80460   1.00
C6       0.32047    0.03307    0.85361   1.00
C6       0.27632    0.09802    0.88324   1.00
C6       0.27304    0.02523    0.92307   1.00
C6       0.18632    -0.11194   0.88477   1.00
H2       0.17001    -0.05791   0.91114   1.00
C6       0.11836    -0.09147   0.90097   1.00
H2       0.16905    0.01642    0.87609   1.00
C6       0.13474    0.03366    0.82697   1.00
C6       0.10893    0.00664    0.88911   1.00
H2       0.15988    -0.08831   0.79992   1.00
C6       0.09863    -0.07772   0.80709   1.00
C6       0.14285    -0.03849   0.76556   1.00
C6       0.32531    -0.01071   0.84167   1.00
C6       0.33648    0.05775    0.81862   1.00
H2       0.34202    0.03788    0.87656   1.00
H2       0.28043    0.10949    0.85383   1.00
C6       0.23707    0.11622    0.89798   1.00
C6       0.30947    0.11607    0.90889   1.00
H2       0.25647    0.04625    0.94035   1.00
C6       0.24905    -0.01336   0.92532   1.00
C6       0.31168    0.01756    0.94624   1.00
H2       0.21684    -0.10346   0.88119   1.00
H2       0.17842    -0.13090   0.86037   1.00
H2       0.18472    -0.12917   0.91157   1.00
H2       0.11880    -0.09608   0.93254   1.00
H2       0.09434    -0.07178   0.89456   1.00
H2       0.11133    -0.11964   0.88782   1.00
H2       0.13213    0.06328    0.83857   1.00
H2       0.15763    0.03468    0.80498   1.00
H2       0.10718    0.02648    0.81271   1.00
H2       0.11496    -0.00862   0.91640   1.00
H2       0.10267    0.03692    0.89708   1.00
H2       0.08253    -0.00550   0.87601   1.00
H2       0.07910    -0.05514   0.81824   1.00
H2       0.08753    -0.08708   0.77865   1.00
H2       0.09648    -0.10332   0.82566   1.00
H2       0.11780    -0.01902   0.76272   1.00
H2       0.16878    -0.02068   0.76245   1.00
H2       0.14223    -0.05828   0.74051   1.00
H2       0.31154    -0.01688   0.81370   1.00
H2       0.35621    -0.01809   0.83867   1.00
H2       0.31312    -0.03048   0.86333   1.00
H2       0.36620    0.04875    0.81119   1.00
H2       0.31897    0.05426    0.79238   1.00
H2       0.33805    0.08878    0.82553   1.00
H2       0.23761    0.14798    0.89475   1.00
H2       0.21223    0.10565    0.88099   1.00
H2       0.23164    0.10965    0.92865   1.00
H2       0.33824    0.10584    0.89988   1.00
H2       0.30962    0.14788    0.90610   1.00
H2       0.30541    0.10915    0.93973   1.00
H2       0.26197    -0.03656   0.90780   1.00
H2       0.24636    -0.02381   0.95532   1.00
H2       0.21967    -0.00834   0.91462   1.00
H2       0.30536    0.00956    0.97649   1.00
H2       0.32852    -0.00622   0.93329   1.00
H2       0.33015    0.04343    0.94728   1.00
C4       0.24815    0.25242    0.47916   1.00
C4       0.24804    0.25170    0.52088   1.00
C3       0.21569    0.26437    0.45636   1.00
C3       0.21441    0.25942    0.54384   1.00
C3       0.28228    0.23999    0.45877   1.00
C3       0.28336    0.24290    0.54114   1.00
C2       0.25003    0.25120    0.39488   1.00
C2       0.24997    0.24880    0.60512   1.00
C3       0.21649    0.26358    0.41538   1.00
C3       0.21542    0.25838    0.58481   1.00
C3       0.28276    0.24010    0.41742   1.00
C3       0.28334    0.24036    0.58238   1.00
H1       0.19055    0.27413    0.46885   1.00
H1       0.18815    0.26579    0.53148   1.00
C5       0.31577    0.22769    0.47980   1.00
C5       0.31841    0.23634    0.52020   1.00
H1       0.19203    0.27229    0.40045   1.00
H1       0.19028    0.26455    0.59990   1.00
H1       0.30782    0.23214    0.40320   1.00
H1       0.30822    0.23159    0.59632   1.00
O3       0.34604    0.20970    0.46039   1.00
O3       0.35409    0.23549    0.53901   1.00
Si1      0.34742    0.16215    0.45753   1.00
Si1      0.37673    0.27657    0.54721   1.00
C6       0.38692    0.15890    0.42462   1.00
C6       0.36035    0.14431    0.50402   1.00
C6       0.30460    0.14169    0.43747   1.00
C6       0.35361    0.32047    0.53307   1.00
C6       0.38324    0.27632    0.59802   1.00
C6       0.42307    0.27304    0.52523   1.00
C6       0.38477    0.18632    0.38806   1.00
H2       0.41114    0.17001    0.44209   1.00
C6       0.40097    0.11836    0.40853   1.00
H2       0.37609    0.16905    0.51642   1.00
C6       0.32697    0.13474    0.53366   1.00
C6       0.38911    0.10893    0.50664   1.00
H2       0.29992    0.15988    0.41169   1.00
C6       0.30709    0.09863    0.42228   1.00
C6       0.26556    0.14285    0.46151   1.00
C6       0.34167    0.32531    0.48929   1.00
C6       0.31862    0.33648    0.55775   1.00
H2       0.37656    0.34202    0.53788   1.00
H2       0.35383    0.28043    0.60949   1.00
C6       0.39798    0.23707    0.61622   1.00
C6       0.40889    0.30947    0.61607   1.00
H2       0.44035    0.25647    0.54625   1.00
C6       0.42532    0.24905    0.48664   1.00
C6       0.44624    0.31168    0.51756   1.00
H2       0.38119    0.21684    0.39654   1.00
H2       0.36037    0.17842    0.36910   1.00
H2       0.41157    0.18472    0.37083   1.00
H2       0.43254    0.11880    0.40392   1.00
H2       0.39456    0.09434    0.42822   1.00
H2       0.38782    0.11133    0.38036   1.00
H2       0.33857    0.13213    0.56328   1.00
H2       0.30498    0.15763    0.53468   1.00
H2       0.31271    0.10718    0.52648   1.00
H2       0.41640    0.11496    0.49138   1.00
H2       0.39708    0.10267    0.53692   1.00
H2       0.37601    0.08253    0.49450   1.00
H2       0.31824    0.07910    0.44486   1.00
H2       0.27865    0.08753    0.41292   1.00
H2       0.32566    0.09648    0.39668   1.00
H2       0.26272    0.11780    0.48098   1.00
H2       0.26245    0.16878    0.47932   1.00
H2       0.24051    0.14223    0.44172   1.00
H2       0.31370    0.31154    0.48312   1.00
H2       0.33867    0.35621    0.48191   1.00
H2       0.36333    0.31312    0.46952   1.00
H2       0.31119    0.36620    0.54875   1.00
H2       0.29238    0.31897    0.55426   1.00
H2       0.32553    0.33805    0.58878   1.00
H2       0.39475    0.23761    0.64798   1.00
H2       0.38099    0.21223    0.60565   1.00
H2       0.42865    0.23164    0.60965   1.00
H2       0.39988    0.33824    0.60584   1.00
H2       0.40610    0.30962    0.64788   1.00
H2       0.43973    0.30541    0.60915   1.00
H2       0.40780    0.26197    0.46344   1.00
H2       0.45532    0.24636    0.47619   1.00
H2       0.41462    0.21967    0.49166   1.00
H2       0.47649    0.30536    0.50956   1.00
H2       0.43329    0.32852    0.49378   1.00
H2       0.44728    0.33015    0.54343   1.00
C4       0.24815    0.74758    0.52084   1.00
C4       0.24804    0.74830    0.47912   1.00
C3       0.21569    0.73563    0.54364   1.00
C3       0.21441    0.74058    0.45616   1.00
C3       0.28228    0.76001    0.54123   1.00
C3       0.28336    0.75710    0.45886   1.00
C2       0.25003    0.74880    0.60512   1.00
C2       0.24997    0.75120    0.39488   1.00
C3       0.21649    0.73642    0.58462   1.00
C3       0.21542    0.74162    0.41519   1.00
C3       0.28276    0.75990    0.58258   1.00
C3       0.28334    0.75964    0.41762   1.00
H1       0.19055    0.72587    0.53115   1.00
H1       0.18815    0.73421    0.46852   1.00
C5       0.31577    0.77231    0.52020   1.00
C5       0.31841    0.76366    0.47980   1.00
H1       0.19203    0.72771    0.59955   1.00
H1       0.19028    0.73545    0.40010   1.00
H1       0.30782    0.76786    0.59680   1.00
H1       0.30822    0.76841    0.40368   1.00
O3       0.34604    0.79030    0.53961   1.00
O3       0.35409    0.76451    0.46099   1.00
Si1      0.34742    0.83785    0.54247   1.00
Si1      0.37673    0.72343    0.45279   1.00
C6       0.38692    0.84110    0.57538   1.00
C6       0.36035    0.85569    0.49598   1.00
C6       0.30460    0.85831    0.56253   1.00
C6       0.35361    0.67953    0.46693   1.00
C6       0.38324    0.72368    0.40198   1.00
C6       0.42307    0.72696    0.47477   1.00
C6       0.38477    0.81368    0.61194   1.00
H2       0.41114    0.82999    0.55791   1.00
C6       0.40097    0.88164    0.59147   1.00
H2       0.37609    0.83095    0.48358   1.00
C6       0.32697    0.86526    0.46634   1.00
C6       0.38911    0.89107    0.49336   1.00
H2       0.29992    0.84012    0.58831   1.00
C6       0.30709    0.90137    0.57772   1.00
C6       0.26556    0.85715    0.53849   1.00
C6       0.34167    0.67469    0.51071   1.00
C6       0.31862    0.66352    0.44225   1.00
H2       0.37656    0.65798    0.46212   1.00
H2       0.35383    0.71957    0.39051   1.00
C6       0.39798    0.76293    0.38378   1.00
C6       0.40889    0.69053    0.38393   1.00
H2       0.44035    0.74353    0.45375   1.00
C6       0.42532    0.75095    0.51336   1.00
C6       0.44624    0.68832    0.48244   1.00
H2       0.38119    0.78316    0.60346   1.00
H2       0.36037    0.82158    0.63090   1.00
H2       0.41157    0.81528    0.62917   1.00
H2       0.43254    0.88120    0.59608   1.00
H2       0.39456    0.90566    0.57178   1.00
H2       0.38782    0.88867    0.61964   1.00
H2       0.33857    0.86787    0.43672   1.00
H2       0.30498    0.84237    0.46532   1.00
H2       0.31271    0.89282    0.47352   1.00
H2       0.41640    0.88504    0.50862   1.00
H2       0.39708    0.89733    0.46308   1.00
H2       0.37601    0.91747    0.50550   1.00
H2       0.31824    0.92090    0.55514   1.00
H2       0.27865    0.91247    0.58708   1.00
H2       0.32566    0.90352    0.60332   1.00
H2       0.26272    0.88220    0.51902   1.00
H2       0.26245    0.83122    0.52068   1.00
H2       0.24051    0.85777    0.55828   1.00
H2       0.31370    0.68846    0.51688   1.00
H2       0.33867    0.64379    0.51809   1.00
H2       0.36333    0.68688    0.53048   1.00
H2       0.31119    0.63380    0.45125   1.00
H2       0.29238    0.68103    0.44574   1.00
H2       0.32553    0.66195    0.41122   1.00
H2       0.39475    0.76239    0.35202   1.00
H2       0.38099    0.78777    0.39435   1.00
H2       0.42865    0.76836    0.39035   1.00
H2       0.39988    0.66176    0.39416   1.00
H2       0.40610    0.69038    0.35212   1.00
H2       0.43973    0.69459    0.39085   1.00
H2       0.40780    0.73803    0.53656   1.00
H2       0.45532    0.75364    0.52381   1.00
H2       0.41462    0.78033    0.50834   1.00
H2       0.47649    0.69464    0.49044   1.00
H2       0.43329    0.67148    0.50622   1.00
H2       0.44728    0.66985    0.45657   1.00
C4       0.24758    1.02084    0.24815   1.00
C4       0.24830    0.97912    0.24804   1.00
C3       0.23563    1.04364    0.21569   1.00
C3       0.24058    0.95616    0.21441   1.00
C3       0.26001    1.04123    0.28228   1.00
C3       0.25710    0.95886    0.28336   1.00
C2       0.24880    1.10512    0.25003   1.00
C2       0.25120    0.89488    0.24997   1.00
C3       0.23642    1.08462    0.21649   1.00
C3       0.24162    0.91519    0.21542   1.00
C3       0.25990    1.08258    0.28276   1.00
C3       0.25964    0.91762    0.28334   1.00
H1       0.22587    1.03115    0.19055   1.00
H1       0.23421    0.96852    0.18815   1.00
C5       0.27231    1.02020    0.31577   1.00
C5       0.26366    0.97980    0.31841   1.00
H1       0.22771    1.09955    0.19203   1.00
H1       0.23545    0.90010    0.19028   1.00
H1       0.26786    1.09680    0.30782   1.00
H1       0.26841    0.90368    0.30822   1.00
O3       0.29030    1.03961    0.34604   1.00
O3       0.26451    0.96099    0.35409   1.00
Si1      0.33785    1.04247    0.34742   1.00
Si1      0.22343    0.95279    0.37673   1.00
C6       0.34110    1.07538    0.38692   1.00
C6       0.35569    0.99598    0.36035   1.00
C6       0.35831    1.06253    0.30460   1.00
C6       0.17953    0.96693    0.35361   1.00
C6       0.22368    0.90198    0.38324   1.00
C6       0.22696    0.97477    0.42307   1.00
C6       0.31368    1.11194    0.38477   1.00
H2       0.32999    1.05791    0.41114   1.00
C6       0.38164    1.09147    0.40097   1.00
H2       0.33095    0.98358    0.37609   1.00
C6       0.36526    0.96634    0.32697   1.00
C6       0.39107    0.99336    0.38911   1.00
H2       0.34012    1.08831    0.29992   1.00
C6       0.40137    1.07772    0.30709   1.00
C6       0.35715    1.03849    0.26556   1.00
C6       0.17469    1.01071    0.34167   1.00
C6       0.16352    0.94225    0.31862   1.00
H2       0.15798    0.96212    0.37656   1.00
H2       0.21957    0.89051    0.35383   1.00
C6       0.26293    0.88378    0.39798   1.00
C6       0.19053    0.88393    0.40889   1.00
H2       0.24353    0.95375    0.44035   1.00
C6       0.25095    1.01336    0.42532   1.00
C6       0.18832    0.98244    0.44624   1.00
H2       0.28316    1.10346    0.38119   1.00
H2       0.32158    1.13090    0.36037   1.00
H2       0.31528    1.12917    0.41157   1.00
H2       0.38120    1.09608    0.43254   1.00
H2       0.40566    1.07178    0.39456   1.00
H2       0.38867    1.11964    0.38782   1.00
H2       0.36787    0.93672    0.33857   1.00
H2       0.34237    0.96532    0.30498   1.00
H2       0.39282    0.97352    0.31271   1.00
H2       0.38504    1.00862    0.41640   1.00
H2       0.39733    0.96308    0.39708   1.00
H2       0.41747    1.00550    0.37601   1.00
H2       0.42090    1.05514    0.31824   1.00
H2       0.41247    1.08708    0.27865   1.00
H2       0.40352    1.10332    0.32566   1.00
H2       0.38220    1.01902    0.26272   1.00
H2       0.33122    1.02068    0.26245   1.00
H2       0.35777    1.05828    0.24051   1.00
H2       0.18846    1.01688    0.31370   1.00
H2       0.14379    1.01809    0.33867   1.00
H2       0.18688    1.03048    0.36333   1.00
H2       0.13380    0.95125    0.31119   1.00
H2       0.18103    0.94574    0.29238   1.00
H2       0.16195    0.91122    0.32553   1.00
H2       0.26239    0.85202    0.39475   1.00
H2       0.28777    0.89435    0.38099   1.00
H2       0.26836    0.89035    0.42865   1.00
H2       0.16176    0.89416    0.39988   1.00
H2       0.19038    0.85212    0.40610   1.00
H2       0.19459    0.89085    0.43973   1.00
H2       0.23803    1.03656    0.40780   1.00
H2       0.25364    1.02381    0.45532   1.00
H2       0.28033    1.00834    0.41462   1.00
H2       0.19464    0.99044    0.47649   1.00
H2       0.17148    1.00622    0.43329   1.00
H2       0.16985    0.95657    0.44728   1.00
C4       -0.02084   0.74815    0.25242   1.00
C4       0.02088    0.74804    0.25170   1.00
C3       -0.04364   0.71569    0.26437   1.00
C3       0.04384    0.71441    0.25942   1.00
C3       -0.04123   0.78228    0.23999   1.00
C3       0.04114    0.78336    0.24290   1.00
C2       -0.10512   0.75003    0.25120   1.00
C2       0.10512    0.74997    0.24880   1.00
C3       -0.08462   0.71649    0.26358   1.00
C3       0.08481    0.71542    0.25838   1.00
C3       -0.08258   0.78276    0.24010   1.00
C3       0.08238    0.78334    0.24036   1.00
H1       -0.03115   0.69055    0.27413   1.00
H1       0.03148    0.68815    0.26579   1.00
C5       -0.02020   0.81577    0.22769   1.00
C5       0.02020    0.81841    0.23634   1.00
H1       -0.09955   0.69203    0.27229   1.00
H1       0.09990    0.69028    0.26455   1.00
H1       -0.09680   0.80782    0.23214   1.00
H1       0.09632    0.80822    0.23159   1.00
O3       -0.03961   0.84604    0.20970   1.00
O3       0.03901    0.85409    0.23549   1.00
Si1      -0.04247   0.84742    0.16215   1.00
Si1      0.04721    0.87673    0.27657   1.00
C6       -0.07538   0.88692    0.15890   1.00
C6       0.00402    0.86035    0.14431   1.00
C6       -0.06253   0.80460    0.14169   1.00
C6       0.03307    0.85361    0.32047   1.00
C6       0.09802    0.88324    0.27632   1.00
C6       0.02523    0.92307    0.27304   1.00
C6       -0.11194   0.88477    0.18632   1.00
H2       -0.05791   0.91114    0.17001   1.00
C6       -0.09147   0.90097    0.11836   1.00
H2       0.01642    0.87609    0.16905   1.00
C6       0.03366    0.82697    0.13474   1.00
C6       0.00664    0.88911    0.10893   1.00
H2       -0.08831   0.79992    0.15988   1.00
C6       -0.07772   0.80709    0.09863   1.00
C6       -0.03849   0.76556    0.14285   1.00
C6       -0.01071   0.84167    0.32531   1.00
C6       0.05775    0.81862    0.33648   1.00
H2       0.03788    0.87656    0.34202   1.00
H2       0.10949    0.85383    0.28043   1.00
C6       0.11622    0.89798    0.23707   1.00
C6       0.11607    0.90889    0.30947   1.00
H2       0.04625    0.94035    0.25647   1.00
C6       -0.01336   0.92532    0.24905   1.00
C6       0.01756    0.94624    0.31168   1.00
H2       -0.10346   0.88119    0.21684   1.00
H2       -0.13090   0.86037    0.17842   1.00
H2       -0.12917   0.91157    0.18472   1.00
H2       -0.09608   0.93254    0.11880   1.00
H2       -0.07178   0.89456    0.09434   1.00
H2       -0.11964   0.88782    0.11133   1.00
H2       0.06328    0.83857    0.13213   1.00
H2       0.03468    0.80498    0.15763   1.00
H2       0.02648    0.81271    0.10718   1.00
H2       -0.00862   0.91640    0.11496   1.00
H2       0.03692    0.89708    0.10267   1.00
H2       -0.00550   0.87601    0.08253   1.00
H2       -0.05514   0.81824    0.07910   1.00
H2       -0.08708   0.77865    0.08753   1.00
H2       -0.10332   0.82566    0.09648   1.00
H2       -0.01902   0.76272    0.11780   1.00
H2       -0.02068   0.76245    0.16878   1.00
H2       -0.05828   0.74051    0.14223   1.00
H2       -0.01688   0.81370    0.31154   1.00
H2       -0.01809   0.83867    0.35621   1.00
H2       -0.03048   0.86333    0.31312   1.00
H2       0.04875    0.81119    0.36620   1.00
H2       0.05426    0.79238    0.31897   1.00
H2       0.08878    0.82553    0.33805   1.00
H2       0.14798    0.89475    0.23761   1.00
H2       0.10565    0.88099    0.21223   1.00
H2       0.10965    0.92865    0.23164   1.00
H2       0.10584    0.89988    0.33824   1.00
H2       0.14788    0.90610    0.30962   1.00
H2       0.10915    0.93973    0.30541   1.00
H2       -0.03656   0.90780    0.26197   1.00
H2       -0.02381   0.95532    0.24636   1.00
H2       -0.00834   0.91462    0.21967   1.00
H2       0.00956    0.97649    0.30536   1.00
H2       -0.00622   0.93329    0.32852   1.00
H2       0.04343    0.94728    0.33015   1.00
C4       0.52084    0.74815    0.24758   1.00
C4       0.47912    0.74804    0.24830   1.00
C3       0.54364    0.71569    0.23563   1.00
C3       0.45616    0.71441    0.24058   1.00
C3       0.54123    0.78228    0.26001   1.00
C3       0.45886    0.78336    0.25710   1.00
C2       0.60512    0.75003    0.24880   1.00
C2       0.39488    0.74997    0.25120   1.00
C3       0.58462    0.71649    0.23642   1.00
C3       0.41519    0.71542    0.24162   1.00
C3       0.58258    0.78276    0.25990   1.00
C3       0.41762    0.78334    0.25964   1.00
H1       0.53115    0.69055    0.22587   1.00
H1       0.46852    0.68815    0.23421   1.00
C5       0.52020    0.81577    0.27231   1.00
C5       0.47980    0.81841    0.26366   1.00
H1       0.59955    0.69203    0.22771   1.00
H1       0.40010    0.69028    0.23545   1.00
H1       0.59680    0.80782    0.26786   1.00
H1       0.40368    0.80822    0.26841   1.00
O3       0.53961    0.84604    0.29030   1.00
O3       0.46099    0.85409    0.26451   1.00
Si1      0.54247    0.84742    0.33785   1.00
Si1      0.45279    0.87673    0.22343   1.00
C6       0.57538    0.88692    0.34110   1.00
C6       0.49598    0.86035    0.35569   1.00
C6       0.56253    0.80460    0.35831   1.00
C6       0.46693    0.85361    0.17953   1.00
C6       0.40198    0.88324    0.22368   1.00
C6       0.47477    0.92307    0.22696   1.00
C6       0.61194    0.88477    0.31368   1.00
H2       0.55791    0.91114    0.32999   1.00
C6       0.59147    0.90097    0.38164   1.00
H2       0.48358    0.87609    0.33095   1.00
C6       0.46634    0.82697    0.36526   1.00
C6       0.49336    0.88911    0.39107   1.00
H2       0.58831    0.79992    0.34012   1.00
C6       0.57772    0.80709    0.40137   1.00
C6       0.53849    0.76556    0.35715   1.00
C6       0.51071    0.84167    0.17469   1.00
C6       0.44225    0.81862    0.16352   1.00
H2       0.46212    0.87656    0.15798   1.00
H2       0.39051    0.85383    0.21957   1.00
C6       0.38378    0.89798    0.26293   1.00
C6       0.38393    0.90889    0.19053   1.00
H2       0.45375    0.94035    0.24353   1.00
C6       0.51336    0.92532    0.25095   1.00
C6       0.48244    0.94624    0.18832   1.00
H2       0.60346    0.88119    0.28316   1.00
H2       0.63090    0.86037    0.32158   1.00
H2       0.62917    0.91157    0.31528   1.00
H2       0.59608    0.93254    0.38120   1.00
H2       0.57178    0.89456    0.40566   1.00
H2       0.61964    0.88782    0.38867   1.00
H2       0.43672    0.83857    0.36787   1.00
H2       0.46532    0.80498    0.34237   1.00
H2       0.47352    0.81271    0.39282   1.00
H2       0.50862    0.91640    0.38504   1.00
H2       0.46308    0.89708    0.39733   1.00
H2       0.50550    0.87601    0.41747   1.00
H2       0.55514    0.81824    0.42090   1.00
H2       0.58708    0.77865    0.41247   1.00
H2       0.60332    0.82566    0.40352   1.00
H2       0.51902    0.76272    0.38220   1.00
H2       0.52068    0.76245    0.33122   1.00
H2       0.55828    0.74051    0.35777   1.00
H2       0.51688    0.81370    0.18846   1.00
H2       0.51809    0.83867    0.14379   1.00
H2       0.53048    0.86333    0.18688   1.00
H2       0.45125    0.81119    0.13380   1.00
H2       0.44574    0.79238    0.18103   1.00
H2       0.41122    0.82553    0.16195   1.00
H2       0.35202    0.89475    0.26239   1.00
H2       0.39435    0.88099    0.28777   1.00
H2       0.39035    0.92865    0.26836   1.00
H2       0.39416    0.89988    0.16176   1.00
H2       0.35212    0.90610    0.19038   1.00
H2       0.39085    0.93973    0.19459   1.00
H2       0.53656    0.90780    0.23803   1.00
H2       0.52381    0.95532    0.25364   1.00
H2       0.50834    0.91462    0.28033   1.00
H2       0.49044    0.97649    0.19464   1.00
H2       0.50622    0.93329    0.17148   1.00
H2       0.45657    0.94728    0.16985   1.00
C4       0.25242    0.47916    0.24815   1.00
C4       0.25170    0.52088    0.24804   1.00
C3       0.26437    0.45636    0.21569   1.00
C3       0.25942    0.54384    0.21441   1.00
C3       0.23999    0.45877    0.28228   1.00
C3       0.24290    0.54114    0.28336   1.00
C2       0.25120    0.39488    0.25003   1.00
C2       0.24880    0.60512    0.24997   1.00
C3       0.26358    0.41538    0.21649   1.00
C3       0.25838    0.58481    0.21542   1.00
C3       0.24010    0.41742    0.28276   1.00
C3       0.24036    0.58238    0.28334   1.00
H1       0.27413    0.46885    0.19055   1.00
H1       0.26579    0.53148    0.18815   1.00
C5       0.22769    0.47980    0.31577   1.00
C5       0.23634    0.52020    0.31841   1.00
H1       0.27229    0.40045    0.19203   1.00
H1       0.26455    0.59990    0.19028   1.00
H1       0.23214    0.40320    0.30782   1.00
H1       0.23159    0.59632    0.30822   1.00
O3       0.20970    0.46039    0.34604   1.00
O3       0.23549    0.53901    0.35409   1.00
Si1      0.16215    0.45753    0.34742   1.00
Si1      0.27657    0.54721    0.37673   1.00
C6       0.15890    0.42462    0.38692   1.00
C6       0.14431    0.50402    0.36035   1.00
C6       0.14169    0.43747    0.30460   1.00
C6       0.32047    0.53307    0.35361   1.00
C6       0.27632    0.59802    0.38324   1.00
C6       0.27304    0.52523    0.42307   1.00
C6       0.18632    0.38806    0.38477   1.00
H2       0.17001    0.44209    0.41114   1.00
C6       0.11836    0.40853    0.40097   1.00
H2       0.16905    0.51642    0.37609   1.00
C6       0.13474    0.53366    0.32697   1.00
C6       0.10893    0.50664    0.38911   1.00
H2       0.15988    0.41169    0.29992   1.00
C6       0.09863    0.42228    0.30709   1.00
C6       0.14285    0.46151    0.26556   1.00
C6       0.32531    0.48929    0.34167   1.00
C6       0.33648    0.55775    0.31862   1.00
H2       0.34202    0.53788    0.37656   1.00
H2       0.28043    0.60949    0.35383   1.00
C6       0.23707    0.61622    0.39798   1.00
C6       0.30947    0.61607    0.40889   1.00
H2       0.25647    0.54625    0.44035   1.00
C6       0.24905    0.48664    0.42532   1.00
C6       0.31168    0.51756    0.44624   1.00
H2       0.21684    0.39654    0.38119   1.00
H2       0.17842    0.36910    0.36037   1.00
H2       0.18472    0.37083    0.41157   1.00
H2       0.11880    0.40392    0.43254   1.00
H2       0.09434    0.42822    0.39456   1.00
H2       0.11133    0.38036    0.38782   1.00
H2       0.13213    0.56328    0.33857   1.00
H2       0.15763    0.53468    0.30498   1.00
H2       0.10718    0.52648    0.31271   1.00
H2       0.11496    0.49138    0.41640   1.00
H2       0.10267    0.53692    0.39708   1.00
H2       0.08253    0.49450    0.37601   1.00
H2       0.07910    0.44486    0.31824   1.00
H2       0.08753    0.41292    0.27865   1.00
H2       0.09648    0.39668    0.32566   1.00
H2       0.11780    0.48098    0.26272   1.00
H2       0.16878    0.47932    0.26245   1.00
H2       0.14223    0.44172    0.24051   1.00
H2       0.31154    0.48312    0.31370   1.00
H2       0.35621    0.48191    0.33867   1.00
H2       0.31312    0.46952    0.36333   1.00
H2       0.36620    0.54875    0.31119   1.00
H2       0.31897    0.55426    0.29238   1.00
H2       0.33805    0.58878    0.32553   1.00
H2       0.23761    0.64798    0.39475   1.00
H2       0.21223    0.60565    0.38099   1.00
H2       0.23164    0.60965    0.42865   1.00
H2       0.33824    0.60584    0.39988   1.00
H2       0.30962    0.64788    0.40610   1.00
H2       0.30541    0.60915    0.43973   1.00
H2       0.26197    0.46344    0.40780   1.00
H2       0.24636    0.47619    0.45532   1.00
H2       0.21967    0.49166    0.41462   1.00
H2       0.30536    0.50956    0.47649   1.00
H2       0.32852    0.49378    0.43329   1.00
H2       0.33015    0.54343    0.44728   1.00
C4       0.24815    0.75242    -0.02084   1.00
C4       0.24804    0.75170    0.02088   1.00
C3       0.21569    0.76437    -0.04364   1.00
C3       0.21441    0.75942    0.04384   1.00
C3       0.28228    0.73999    -0.04123   1.00
C3       0.28336    0.74290    0.04114   1.00
C2       0.25003    0.75120    -0.10512   1.00
C2       0.24997    0.74880    0.10512   1.00
C3       0.21649    0.76358    -0.08462   1.00
C3       0.21542    0.75838    0.08481   1.00
C3       0.28276    0.74010    -0.08258   1.00
C3       0.28334    0.74036    0.08238   1.00
H1       0.19055    0.77413    -0.03115   1.00
H1       0.18815    0.76579    0.03148   1.00
C5       0.31577    0.72769    -0.02020   1.00
C5       0.31841    0.73634    0.02020   1.00
H1       0.19203    0.77229    -0.09955   1.00
H1       0.19028    0.76455    0.09990   1.00
H1       0.30782    0.73214    -0.09680   1.00
H1       0.30822    0.73159    0.09632   1.00
O3       0.34604    0.70970    -0.03961   1.00
O3       0.35409    0.73549    0.03901   1.00
Si1      0.34742    0.66215    -0.04247   1.00
Si1      0.37673    0.77657    0.04721   1.00
C6       0.38692    0.65890    -0.07538   1.00
C6       0.36035    0.64431    0.00402   1.00
C6       0.30460    0.64169    -0.06253   1.00
C6       0.35361    0.82047    0.03307   1.00
C6       0.38324    0.77632    0.09802   1.00
C6       0.42307    0.77304    0.02523   1.00
C6       0.38477    0.68632    -0.11194   1.00
H2       0.41114    0.67001    -0.05791   1.00
C6       0.40097    0.61836    -0.09147   1.00
H2       0.37609    0.66905    0.01642   1.00
C6       0.32697    0.63474    0.03366   1.00
C6       0.38911    0.60893    0.00664   1.00
H2       0.29992    0.65988    -0.08831   1.00
C6       0.30709    0.59863    -0.07772   1.00
C6       0.26556    0.64285    -0.03849   1.00
C6       0.34167    0.82531    -0.01071   1.00
C6       0.31862    0.83648    0.05775   1.00
H2       0.37656    0.84202    0.03788   1.00
H2       0.35383    0.78043    0.10949   1.00
C6       0.39798    0.73707    0.11622   1.00
C6       0.40889    0.80947    0.11607   1.00
H2       0.44035    0.75647    0.04625   1.00
C6       0.42532    0.74905    -0.01336   1.00
C6       0.44624    0.81168    0.01756   1.00
H2       0.38119    0.71684    -0.10346   1.00
H2       0.36037    0.67842    -0.13090   1.00
H2       0.41157    0.68472    -0.12917   1.00
H2       0.43254    0.61880    -0.09608   1.00
H2       0.39456    0.59434    -0.07178   1.00
H2       0.38782    0.61133    -0.11964   1.00
H2       0.33857    0.63213    0.06328   1.00
H2       0.30498    0.65763    0.03468   1.00
H2       0.31271    0.60718    0.02648   1.00
H2       0.41640    0.61496    -0.00862   1.00
H2       0.39708    0.60267    0.03692   1.00
H2       0.37601    0.58253    -0.00550   1.00
H2       0.31824    0.57910    -0.05514   1.00
H2       0.27865    0.58753    -0.08708   1.00
H2       0.32566    0.59648    -0.10332   1.00
H2       0.26272    0.61780    -0.01902   1.00
H2       0.26245    0.66878    -0.02068   1.00
H2       0.24051    0.64223    -0.05828   1.00
H2       0.31370    0.81154    -0.01688   1.00
H2       0.33867    0.85621    -0.01809   1.00
H2       0.36333    0.81312    -0.03048   1.00
H2       0.31119    0.86620    0.04875   1.00
H2       0.29238    0.81897    0.05426   1.00
H2       0.32553    0.83805    0.08878   1.00
H2       0.39475    0.73761    0.14798   1.00
H2       0.38099    0.71223    0.10565   1.00
H2       0.42865    0.73164    0.10965   1.00
H2       0.39988    0.83824    0.10584   1.00
H2       0.40610    0.80962    0.14788   1.00
H2       0.43973    0.80541    0.10915   1.00
H2       0.40780    0.76197    -0.03656   1.00
H2       0.45532    0.74636    -0.02381   1.00
H2       0.41462    0.71967    -0.00834   1.00
H2       0.47649    0.80536    0.00956   1.00
H2       0.43329    0.82852    -0.00622   1.00
H2       0.44728    0.83015    0.04343   1.00
C4       0.74815    0.24758    0.52084   1.00
C4       0.74804    0.24830    0.47912   1.00
C3       0.71569    0.23563    0.54364   1.00
C3       0.71441    0.24058    0.45616   1.00
C3       0.78228    0.26001    0.54123   1.00
C3       0.78336    0.25710    0.45886   1.00
C2       0.75003    0.24880    0.60512   1.00
C2       0.74997    0.25120    0.39488   1.00
C3       0.71649    0.23642    0.58462   1.00
C3       0.71542    0.24162    0.41519   1.00
C3       0.78276    0.25990    0.58258   1.00
C3       0.78334    0.25964    0.41762   1.00
H1       0.69055    0.22587    0.53115   1.00
H1       0.68815    0.23421    0.46852   1.00
C5       0.81577    0.27231    0.52020   1.00
C5       0.81841    0.26366    0.47980   1.00
H1       0.69203    0.22771    0.59955   1.00
H1       0.69028    0.23545    0.40010   1.00
H1       0.80782    0.26786    0.59680   1.00
H1       0.80822    0.26841    0.40368   1.00
O3       0.84604    0.29030    0.53961   1.00
O3       0.85409    0.26451    0.46099   1.00
Si1      0.84742    0.33785    0.54247   1.00
Si1      0.87673    0.22343    0.45279   1.00
C6       0.88692    0.34110    0.57538   1.00
C6       0.86035    0.35569    0.49598   1.00
C6       0.80460    0.35831    0.56253   1.00
C6       0.85361    0.17953    0.46693   1.00
C6       0.88324    0.22368    0.40198   1.00
C6       0.92307    0.22696    0.47477   1.00
C6       0.88477    0.31368    0.61194   1.00
H2       0.91114    0.32999    0.55791   1.00
C6       0.90097    0.38164    0.59147   1.00
H2       0.87609    0.33095    0.48358   1.00
C6       0.82697    0.36526    0.46634   1.00
C6       0.88911    0.39107    0.49336   1.00
H2       0.79992    0.34012    0.58831   1.00
C6       0.80709    0.40137    0.57772   1.00
C6       0.76556    0.35715    0.53849   1.00
C6       0.84167    0.17469    0.51071   1.00
C6       0.81862    0.16352    0.44225   1.00
H2       0.87656    0.15798    0.46212   1.00
H2       0.85383    0.21957    0.39051   1.00
C6       0.89798    0.26293    0.38378   1.00
C6       0.90889    0.19053    0.38393   1.00
H2       0.94035    0.24353    0.45375   1.00
C6       0.92532    0.25095    0.51336   1.00
C6       0.94624    0.18832    0.48244   1.00
H2       0.88119    0.28316    0.60346   1.00
H2       0.86037    0.32158    0.63090   1.00
H2       0.91157    0.31528    0.62917   1.00
H2       0.93254    0.38120    0.59608   1.00
H2       0.89456    0.40566    0.57178   1.00
H2       0.88782    0.38867    0.61964   1.00
H2       0.83857    0.36787    0.43672   1.00
H2       0.80498    0.34237    0.46532   1.00
H2       0.81271    0.39282    0.47352   1.00
H2       0.91640    0.38504    0.50862   1.00
H2       0.89708    0.39733    0.46308   1.00
H2       0.87601    0.41747    0.50550   1.00
H2       0.81824    0.42090    0.55514   1.00
H2       0.77865    0.41247    0.58708   1.00
H2       0.82566    0.40352    0.60332   1.00
H2       0.76272    0.38220    0.51902   1.00
H2       0.76245    0.33122    0.52068   1.00
H2       0.74051    0.35777    0.55828   1.00
H2       0.81370    0.18846    0.51688   1.00
H2       0.83867    0.14379    0.51809   1.00
H2       0.86333    0.18688    0.53048   1.00
H2       0.81119    0.13380    0.45125   1.00
H2       0.79238    0.18103    0.44574   1.00
H2       0.82553    0.16195    0.41122   1.00
H2       0.89475    0.26239    0.35202   1.00
H2       0.88099    0.28777    0.39435   1.00
H2       0.92865    0.26836    0.39035   1.00
H2       0.89988    0.16176    0.39416   1.00
H2       0.90610    0.19038    0.35212   1.00
H2       0.93973    0.19459    0.39085   1.00
H2       0.90780    0.23803    0.53656   1.00
H2       0.95532    0.25364    0.52381   1.00
H2       0.91462    0.28033    0.50834   1.00
H2       0.97649    0.19464    0.49044   1.00
H2       0.93329    0.17148    0.50622   1.00
H2       0.94728    0.16985    0.45657   1.00
C4       0.74758    0.52084    0.24815   1.00
C4       0.74830    0.47912    0.24804   1.00
C3       0.73563    0.54364    0.21569   1.00
C3       0.74058    0.45616    0.21441   1.00
C3       0.76001    0.54123    0.28228   1.00
C3       0.75710    0.45886    0.28336   1.00
C2       0.74880    0.60512    0.25003   1.00
C2       0.75120    0.39488    0.24997   1.00
C3       0.73642    0.58462    0.21649   1.00
C3       0.74162    0.41519    0.21542   1.00
C3       0.75990    0.58258    0.28276   1.00
C3       0.75964    0.41762    0.28334   1.00
H1       0.72587    0.53115    0.19055   1.00
H1       0.73421    0.46852    0.18815   1.00
C5       0.77231    0.52020    0.31577   1.00
C5       0.76366    0.47980    0.31841   1.00
H1       0.72771    0.59955    0.19203   1.00
H1       0.73545    0.40010    0.19028   1.00
H1       0.76786    0.59680    0.30782   1.00
H1       0.76841    0.40368    0.30822   1.00
O3       0.79030    0.53961    0.34604   1.00
O3       0.76451    0.46099    0.35409   1.00
Si1      0.83785    0.54247    0.34742   1.00
Si1      0.72343    0.45279    0.37673   1.00
C6       0.84110    0.57538    0.38692   1.00
C6       0.85569    0.49598    0.36035   1.00
C6       0.85831    0.56253    0.30460   1.00
C6       0.67953    0.46693    0.35361   1.00
C6       0.72368    0.40198    0.38324   1.00
C6       0.72696    0.47477    0.42307   1.00
C6       0.81368    0.61194    0.38477   1.00
H2       0.82999    0.55791    0.41114   1.00
C6       0.88164    0.59147    0.40097   1.00
H2       0.83095    0.48358    0.37609   1.00
C6       0.86526    0.46634    0.32697   1.00
C6       0.89107    0.49336    0.38911   1.00
H2       0.84012    0.58831    0.29992   1.00
C6       0.90137    0.57772    0.30709   1.00
C6       0.85715    0.53849    0.26556   1.00
C6       0.67469    0.51071    0.34167   1.00
C6       0.66352    0.44225    0.31862   1.00
H2       0.65798    0.46212    0.37656   1.00
H2       0.71957    0.39051    0.35383   1.00
C6       0.76293    0.38378    0.39798   1.00
C6       0.69053    0.38393    0.40889   1.00
H2       0.74353    0.45375    0.44035   1.00
C6       0.75095    0.51336    0.42532   1.00
C6       0.68832    0.48244    0.44624   1.00
H2       0.78316    0.60346    0.38119   1.00
H2       0.82158    0.63090    0.36037   1.00
H2       0.81528    0.62917    0.41157   1.00
H2       0.88120    0.59608    0.43254   1.00
H2       0.90566    0.57178    0.39456   1.00
H2       0.88867    0.61964    0.38782   1.00
H2       0.86787    0.43672    0.33857   1.00
H2       0.84237    0.46532    0.30498   1.00
H2       0.89282    0.47352    0.31271   1.00
H2       0.88504    0.50862    0.41640   1.00
H2       0.89733    0.46308    0.39708   1.00
H2       0.91747    0.50550    0.37601   1.00
H2       0.92090    0.55514    0.31824   1.00
H2       0.91247    0.58708    0.27865   1.00
H2       0.90352    0.60332    0.32566   1.00
H2       0.88220    0.51902    0.26272   1.00
H2       0.83122    0.52068    0.26245   1.00
H2       0.85777    0.55828    0.24051   1.00
H2       0.68846    0.51688    0.31370   1.00
H2       0.64379    0.51809    0.33867   1.00
H2       0.68688    0.53048    0.36333   1.00
H2       0.63380    0.45125    0.31119   1.00
H2       0.68103    0.44574    0.29238   1.00
H2       0.66195    0.41122    0.32553   1.00
H2       0.76239    0.35202    0.39475   1.00
H2       0.78777    0.39435    0.38099   1.00
H2       0.76836    0.39035    0.42865   1.00
H2       0.66176    0.39416    0.39988   1.00
H2       0.69038    0.35212    0.40610   1.00
H2       0.69459    0.39085    0.43973   1.00
H2       0.73803    0.53656    0.40780   1.00
H2       0.75364    0.52381    0.45532   1.00
H2       0.78033    0.50834    0.41462   1.00
H2       0.69464    0.49044    0.47649   1.00
H2       0.67148    0.50622    0.43329   1.00
H2       0.66985    0.45657    0.44728   1.00
C4       0.47916    0.24815    0.25242   1.00
C4       0.52088    0.24804    0.25170   1.00
C3       0.45636    0.21569    0.26437   1.00
C3       0.54384    0.21441    0.25942   1.00
C3       0.45877    0.28228    0.23999   1.00
C3       0.54114    0.28336    0.24290   1.00
C2       0.39488    0.25003    0.25120   1.00
C2       0.60512    0.24997    0.24880   1.00
C3       0.41538    0.21649    0.26358   1.00
C3       0.58481    0.21542    0.25838   1.00
C3       0.41742    0.28276    0.24010   1.00
C3       0.58238    0.28334    0.24036   1.00
H1       0.46885    0.19055    0.27413   1.00
H1       0.53148    0.18815    0.26579   1.00
C5       0.47980    0.31577    0.22769   1.00
C5       0.52020    0.31841    0.23634   1.00
H1       0.40045    0.19203    0.27229   1.00
H1       0.59990    0.19028    0.26455   1.00
H1       0.40320    0.30782    0.23214   1.00
H1       0.59632    0.30822    0.23159   1.00
O3       0.46039    0.34604    0.20970   1.00
O3       0.53901    0.35409    0.23549   1.00
Si1      0.45753    0.34742    0.16215   1.00
Si1      0.54721    0.37673    0.27657   1.00
C6       0.42462    0.38692    0.15890   1.00
C6       0.50402    0.36035    0.14431   1.00
C6       0.43747    0.30460    0.14169   1.00
C6       0.53307    0.35361    0.32047   1.00
C6       0.59802    0.38324    0.27632   1.00
C6       0.52523    0.42307    0.27304   1.00
C6       0.38806    0.38477    0.18632   1.00
H2       0.44209    0.41114    0.17001   1.00
C6       0.40853    0.40097    0.11836   1.00
H2       0.51642    0.37609    0.16905   1.00
C6       0.53366    0.32697    0.13474   1.00
C6       0.50664    0.38911    0.10893   1.00
H2       0.41169    0.29992    0.15988   1.00
C6       0.42228    0.30709    0.09863   1.00
C6       0.46151    0.26556    0.14285   1.00
C6       0.48929    0.34167    0.32531   1.00
C6       0.55775    0.31862    0.33648   1.00
H2       0.53788    0.37656    0.34202   1.00
H2       0.60949    0.35383    0.28043   1.00
C6       0.61622    0.39798    0.23707   1.00
C6       0.61607    0.40889    0.30947   1.00
H2       0.54625    0.44035    0.25647   1.00
C6       0.48664    0.42532    0.24905   1.00
C6       0.51756    0.44624    0.31168   1.00
H2       0.39654    0.38119    0.21684   1.00
H2       0.36910    0.36037    0.17842   1.00
H2       0.37083    0.41157    0.18472   1.00
H2       0.40392    0.43254    0.11880   1.00
H2       0.42822    0.39456    0.09434   1.00
H2       0.38036    0.38782    0.11133   1.00
H2       0.56328    0.33857    0.13213   1.00
H2       0.53468    0.30498    0.15763   1.00
H2       0.52648    0.31271    0.10718   1.00
H2       0.49138    0.41640    0.11496   1.00
H2       0.53692    0.39708    0.10267   1.00
H2       0.49450    0.37601    0.08253   1.00
H2       0.44486    0.31824    0.07910   1.00
H2       0.41292    0.27865    0.08753   1.00
H2       0.39668    0.32566    0.09648   1.00
H2       0.48098    0.26272    0.11780   1.00
H2       0.47932    0.26245    0.16878   1.00
H2       0.44172    0.24051    0.14223   1.00
H2       0.48312    0.31370    0.31154   1.00
H2       0.48191    0.33867    0.35621   1.00
H2       0.46952    0.36333    0.31312   1.00
H2       0.54875    0.31119    0.36620   1.00
H2       0.55426    0.29238    0.31897   1.00
H2       0.58878    0.32553    0.33805   1.00
H2       0.64798    0.39475    0.23761   1.00
H2       0.60565    0.38099    0.21223   1.00
H2       0.60965    0.42865    0.23164   1.00
H2       0.60584    0.39988    0.33824   1.00
H2       0.64788    0.40610    0.30962   1.00
H2       0.60915    0.43973    0.30541   1.00
H2       0.46344    0.40780    0.26197   1.00
H2       0.47619    0.45532    0.24636   1.00
H2       0.49166    0.41462    0.21967   1.00
H2       0.50956    0.47649    0.30536   1.00
H2       0.49378    0.43329    0.32852   1.00
H2       0.54343    0.44728    0.33015   1.00
C4       1.02084    0.24815    0.24758   1.00
C4       0.97912    0.24804    0.24830   1.00
C3       1.04364    0.21569    0.23563   1.00
C3       0.95616    0.21441    0.24058   1.00
C3       1.04123    0.28228    0.26001   1.00
C3       0.95886    0.28336    0.25710   1.00
C2       1.10512    0.25003    0.24880   1.00
C2       0.89488    0.24997    0.25120   1.00
C3       1.08462    0.21649    0.23642   1.00
C3       0.91519    0.21542    0.24162   1.00
C3       1.08258    0.28276    0.25990   1.00
C3       0.91762    0.28334    0.25964   1.00
H1       1.03115    0.19055    0.22587   1.00
H1       0.96852    0.18815    0.23421   1.00
C5       1.02020    0.31577    0.27231   1.00
C5       0.97980    0.31841    0.26366   1.00
H1       1.09955    0.19203    0.22771   1.00
H1       0.90010    0.19028    0.23545   1.00
H1       1.09680    0.30782    0.26786   1.00
H1       0.90368    0.30822    0.26841   1.00
O3       1.03961    0.34604    0.29030   1.00
O3       0.96099    0.35409    0.26451   1.00
Si1      1.04247    0.34742    0.33785   1.00
Si1      0.95279    0.37673    0.22343   1.00
C6       1.07538    0.38692    0.34110   1.00
C6       0.99598    0.36035    0.35569   1.00
C6       1.06253    0.30460    0.35831   1.00
C6       0.96693    0.35361    0.17953   1.00
C6       0.90198    0.38324    0.22368   1.00
C6       0.97477    0.42307    0.22696   1.00
C6       1.11194    0.38477    0.31368   1.00
H2       1.05791    0.41114    0.32999   1.00
C6       1.09147    0.40097    0.38164   1.00
H2       0.98358    0.37609    0.33095   1.00
C6       0.96634    0.32697    0.36526   1.00
C6       0.99336    0.38911    0.39107   1.00
H2       1.08831    0.29992    0.34012   1.00
C6       1.07772    0.30709    0.40137   1.00
C6       1.03849    0.26556    0.35715   1.00
C6       1.01071    0.34167    0.17469   1.00
C6       0.94225    0.31862    0.16352   1.00
H2       0.96212    0.37656    0.15798   1.00
H2       0.89051    0.35383    0.21957   1.00
C6       0.88378    0.39798    0.26293   1.00
C6       0.88393    0.40889    0.19053   1.00
H2       0.95375    0.44035    0.24353   1.00
C6       1.01336    0.42532    0.25095   1.00
C6       0.98244    0.44624    0.18832   1.00
H2       1.10346    0.38119    0.28316   1.00
H2       1.13090    0.36037    0.32158   1.00
H2       1.12917    0.41157    0.31528   1.00
H2       1.09608    0.43254    0.38120   1.00
H2       1.07178    0.39456    0.40566   1.00
H2       1.11964    0.38782    0.38867   1.00
H2       0.93672    0.33857    0.36787   1.00
H2       0.96532    0.30498    0.34237   1.00
H2       0.97352    0.31271    0.39282   1.00
H2       1.00862    0.41640    0.38504   1.00
H2       0.96308    0.39708    0.39733   1.00
H2       1.00550    0.37601    0.41747   1.00
H2       1.05514    0.31824    0.42090   1.00
H2       1.08708    0.27865    0.41247   1.00
H2       1.10332    0.32566    0.40352   1.00
H2       1.01902    0.26272    0.38220   1.00
H2       1.02068    0.26245    0.33122   1.00
H2       1.05828    0.24051    0.35777   1.00
H2       1.01688    0.31370    0.18846   1.00
H2       1.01809    0.33867    0.14379   1.00
H2       1.03048    0.36333    0.18688   1.00
H2       0.95125    0.31119    0.13380   1.00
H2       0.94574    0.29238    0.18103   1.00
H2       0.91122    0.32553    0.16195   1.00
H2       0.85202    0.39475    0.26239   1.00
H2       0.89435    0.38099    0.28777   1.00
H2       0.89035    0.42865    0.26836   1.00
H2       0.89416    0.39988    0.16176   1.00
H2       0.85212    0.40610    0.19038   1.00
H2       0.89085    0.43973    0.19459   1.00
H2       1.03656    0.40780    0.23803   1.00
H2       1.02381    0.45532    0.25364   1.00
H2       1.00834    0.41462    0.28033   1.00
H2       0.99044    0.47649    0.19464   1.00
H2       1.00622    0.43329    0.17148   1.00
H2       0.95657    0.44728    0.16985   1.00
C4       0.75242    -0.02084   0.24815   1.00
C4       0.75170    0.02088    0.24804   1.00
C3       0.76437    -0.04364   0.21569   1.00
C3       0.75942    0.04384    0.21441   1.00
C3       0.73999    -0.04123   0.28228   1.00
C3       0.74290    0.04114    0.28336   1.00
C2       0.75120    -0.10512   0.25003   1.00
C2       0.74880    0.10512    0.24997   1.00
C3       0.76358    -0.08462   0.21649   1.00
C3       0.75838    0.08481    0.21542   1.00
C3       0.74010    -0.08258   0.28276   1.00
C3       0.74036    0.08238    0.28334   1.00
H1       0.77413    -0.03115   0.19055   1.00
H1       0.76579    0.03148    0.18815   1.00
C5       0.72769    -0.02020   0.31577   1.00
C5       0.73634    0.02020    0.31841   1.00
H1       0.77229    -0.09955   0.19203   1.00
H1       0.76455    0.09990    0.19028   1.00
H1       0.73214    -0.09680   0.30782   1.00
H1       0.73159    0.09632    0.30822   1.00
O3       0.70970    -0.03961   0.34604   1.00
O3       0.73549    0.03901    0.35409   1.00
Si1      0.66215    -0.04247   0.34742   1.00
Si1      0.77657    0.04721    0.37673   1.00
C6       0.65890    -0.07538   0.38692   1.00
C6       0.64431    0.00402    0.36035   1.00
C6       0.64169    -0.06253   0.30460   1.00
C6       0.82047    0.03307    0.35361   1.00
C6       0.77632    0.09802    0.38324   1.00
C6       0.77304    0.02523    0.42307   1.00
C6       0.68632    -0.11194   0.38477   1.00
H2       0.67001    -0.05791   0.41114   1.00
C6       0.61836    -0.09147   0.40097   1.00
H2       0.66905    0.01642    0.37609   1.00
C6       0.63474    0.03366    0.32697   1.00
C6       0.60893    0.00664    0.38911   1.00
H2       0.65988    -0.08831   0.29992   1.00
C6       0.59863    -0.07772   0.30709   1.00
C6       0.64285    -0.03849   0.26556   1.00
C6       0.82531    -0.01071   0.34167   1.00
C6       0.83648    0.05775    0.31862   1.00
H2       0.84202    0.03788    0.37656   1.00
H2       0.78043    0.10949    0.35383   1.00
C6       0.73707    0.11622    0.39798   1.00
C6       0.80947    0.11607    0.40889   1.00
H2       0.75647    0.04625    0.44035   1.00
C6       0.74905    -0.01336   0.42532   1.00
C6       0.81168    0.01756    0.44624   1.00
H2       0.71684    -0.10346   0.38119   1.00
H2       0.67842    -0.13090   0.36037   1.00
H2       0.68472    -0.12917   0.41157   1.00
H2       0.61880    -0.09608   0.43254   1.00
H2       0.59434    -0.07178   0.39456   1.00
H2       0.61133    -0.11964   0.38782   1.00
H2       0.63213    0.06328    0.33857   1.00
H2       0.65763    0.03468    0.30498   1.00
H2       0.60718    0.02648    0.31271   1.00
H2       0.61496    -0.00862   0.41640   1.00
H2       0.60267    0.03692    0.39708   1.00
H2       0.58253    -0.00550   0.37601   1.00
H2       0.57910    -0.05514   0.31824   1.00
H2       0.58753    -0.08708   0.27865   1.00
H2       0.59648    -0.10332   0.32566   1.00
H2       0.61780    -0.01902   0.26272   1.00
H2       0.66878    -0.02068   0.26245   1.00
H2       0.64223    -0.05828   0.24051   1.00
H2       0.81154    -0.01688   0.31370   1.00
H2       0.85621    -0.01809   0.33867   1.00
H2       0.81312    -0.03048   0.36333   1.00
H2       0.86620    0.04875    0.31119   1.00
H2       0.81897    0.05426    0.29238   1.00
H2       0.83805    0.08878    0.32553   1.00
H2       0.73761    0.14798    0.39475   1.00
H2       0.71223    0.10565    0.38099   1.00
H2       0.73164    0.10965    0.42865   1.00
H2       0.83824    0.10584    0.39988   1.00
H2       0.80962    0.14788    0.40610   1.00
H2       0.80541    0.10915    0.43973   1.00
H2       0.76197    -0.03656   0.40780   1.00
H2       0.74636    -0.02381   0.45532   1.00
H2       0.71967    -0.00834   0.41462   1.00
H2       0.80536    0.00956    0.47649   1.00
H2       0.82852    -0.00622   0.43329   1.00
H2       0.83015    0.04343    0.44728   1.00
C4       0.74815    0.25242    -0.02084   1.00
C4       0.74804    0.25170    0.02088   1.00
C3       0.71569    0.26437    -0.04364   1.00
C3       0.71441    0.25942    0.04384   1.00
C3       0.78228    0.23999    -0.04123   1.00
C3       0.78336    0.24290    0.04114   1.00
C2       0.75003    0.25120    -0.10512   1.00
C2       0.74997    0.24880    0.10512   1.00
C3       0.71649    0.26358    -0.08462   1.00
C3       0.71542    0.25838    0.08481   1.00
C3       0.78276    0.24010    -0.08258   1.00
C3       0.78334    0.24036    0.08238   1.00
H1       0.69055    0.27413    -0.03115   1.00
H1       0.68815    0.26579    0.03148   1.00
C5       0.81577    0.22769    -0.02020   1.00
C5       0.81841    0.23634    0.02020   1.00
H1       0.69203    0.27229    -0.09955   1.00
H1       0.69028    0.26455    0.09990   1.00
H1       0.80782    0.23214    -0.09680   1.00
H1       0.80822    0.23159    0.09632   1.00
O3       0.84604    0.20970    -0.03961   1.00
O3       0.85409    0.23549    0.03901   1.00
Si1      0.84742    0.16215    -0.04247   1.00
Si1      0.87673    0.27657    0.04721   1.00
C6       0.88692    0.15890    -0.07538   1.00
C6       0.86035    0.14431    0.00402   1.00
C6       0.80460    0.14169    -0.06253   1.00
C6       0.85361    0.32047    0.03307   1.00
C6       0.88324    0.27632    0.09802   1.00
C6       0.92307    0.27304    0.02523   1.00
C6       0.88477    0.18632    -0.11194   1.00
H2       0.91114    0.17001    -0.05791   1.00
C6       0.90097    0.11836    -0.09147   1.00
H2       0.87609    0.16905    0.01642   1.00
C6       0.82697    0.13474    0.03366   1.00
C6       0.88911    0.10893    0.00664   1.00
H2       0.79992    0.15988    -0.08831   1.00
C6       0.80709    0.09863    -0.07772   1.00
C6       0.76556    0.14285    -0.03849   1.00
C6       0.84167    0.32531    -0.01071   1.00
C6       0.81862    0.33648    0.05775   1.00
H2       0.87656    0.34202    0.03788   1.00
H2       0.85383    0.28043    0.10949   1.00
C6       0.89798    0.23707    0.11622   1.00
C6       0.90889    0.30947    0.11607   1.00
H2       0.94035    0.25647    0.04625   1.00
C6       0.92532    0.24905    -0.01336   1.00
C6       0.94624    0.31168    0.01756   1.00
H2       0.88119    0.21684    -0.10346   1.00
H2       0.86037    0.17842    -0.13090   1.00
H2       0.91157    0.18472    -0.12917   1.00
H2       0.93254    0.11880    -0.09608   1.00
H2       0.89456    0.09434    -0.07178   1.00
H2       0.88782    0.11133    -0.11964   1.00
H2       0.83857    0.13213    0.06328   1.00
H2       0.80498    0.15763    0.03468   1.00
H2       0.81271    0.10718    0.02648   1.00
H2       0.91640    0.11496    -0.00862   1.00
H2       0.89708    0.10267    0.03692   1.00
H2       0.87601    0.08253    -0.00550   1.00
H2       0.81824    0.07910    -0.05514   1.00
H2       0.77865    0.08753    -0.08708   1.00
H2       0.82566    0.09648    -0.10332   1.00
H2       0.76272    0.11780    -0.01902   1.00
H2       0.76245    0.16878    -0.02068   1.00
H2       0.74051    0.14223    -0.05828   1.00
H2       0.81370    0.31154    -0.01688   1.00
H2       0.83867    0.35621    -0.01809   1.00
H2       0.86333    0.31312    -0.03048   1.00
H2       0.81119    0.36620    0.04875   1.00
H2       0.79238    0.31897    0.05426   1.00
H2       0.82553    0.33805    0.08878   1.00
H2       0.89475    0.23761    0.14798   1.00
H2       0.88099    0.21223    0.10565   1.00
H2       0.92865    0.23164    0.10965   1.00
H2       0.89988    0.33824    0.10584   1.00
H2       0.90610    0.30962    0.14788   1.00
H2       0.93973    0.30541    0.10915   1.00
H2       0.90780    0.26197    -0.03656   1.00
H2       0.95532    0.24636    -0.02381   1.00
H2       0.91462    0.21967    -0.00834   1.00
H2       0.97649    0.30536    0.00956   1.00
H2       0.93329    0.32852    -0.00622   1.00
H2       0.94728    0.33015    0.04343   1.00
