data_IRMOF10_SG202_Ligand11_label_v.

_audit_creation_method             'generated by an auxiliary program of Tobunporous'

_symmetry_space_group_name_H-M     'P 1'
_symmetry_Int_Tables_number        1
_symmetry_cell_setting             triclinic

_cell_length_a                    34.2800
_cell_length_b                    34.2800
_cell_length_c                    34.2800
_cell_angle_alpha                 90.0000
_cell_angle_beta                  90.0000
_cell_angle_gamma                 90.0000

loop_
_atom_site_label
_atom_site_fract_x
_atom_site_fract_y
_atom_site_fract_z
_atom_site_occupancy
O1       0.75000    0.75000    0.75000   1.00
Zn1      0.71720    0.78280    0.78280   1.00
Zn1      0.78280    0.71720    0.78280   1.00
Zn1      0.78280    0.78280    0.71720   1.00
Zn1      0.71720    0.71720    0.71720   1.00
O2       0.72650    0.77350    0.83820   1.00
O2       0.72650    0.83820    0.77350   1.00
O2       0.66180    0.77350    0.77350   1.00
O2       0.77350    0.72650    0.83820   1.00
O2       0.83820    0.72650    0.77350   1.00
O2       0.77350    0.66180    0.77350   1.00
O2       0.77350    0.83820    0.72650   1.00
O2       0.83820    0.77350    0.72650   1.00
O2       0.77350    0.77350    0.66180   1.00
O2       0.66180    0.72650    0.72650   1.00
O2       0.72650    0.66180    0.72650   1.00
O2       0.72650    0.72650    0.66180   1.00
C1       0.75000    0.75000    0.85520   1.00
C1       0.75000    0.85520    0.75000   1.00
C1       0.64480    0.75000    0.75000   1.00
C1       0.85520    0.75000    0.75000   1.00
C1       0.75000    0.64480    0.75000   1.00
C1       0.75000    0.75000    0.64480   1.00
O1       0.25000    0.25000    0.75000   1.00
Zn1      0.21720    0.28280    0.78280   1.00
Zn1      0.28280    0.21720    0.78280   1.00
Zn1      0.28280    0.28280    0.71720   1.00
Zn1      0.21720    0.21720    0.71720   1.00
O2       0.22650    0.27350    0.83820   1.00
O2       0.22650    0.33820    0.77350   1.00
O2       0.16180    0.27350    0.77350   1.00
O2       0.27350    0.22650    0.83820   1.00
O2       0.33820    0.22650    0.77350   1.00
O2       0.27350    0.16180    0.77350   1.00
O2       0.27350    0.33820    0.72650   1.00
O2       0.33820    0.27350    0.72650   1.00
O2       0.27350    0.27350    0.66180   1.00
O2       0.16180    0.22650    0.72650   1.00
O2       0.22650    0.16180    0.72650   1.00
O2       0.22650    0.22650    0.66180   1.00
C1       0.25000    0.25000    0.85520   1.00
C1       0.25000    0.35520    0.75000   1.00
C1       0.14480    0.25000    0.75000   1.00
C1       0.35520    0.25000    0.75000   1.00
C1       0.25000    0.14480    0.75000   1.00
C1       0.25000    0.25000    0.64480   1.00
O1       0.25000    0.75000    0.25000   1.00
Zn1      0.21720    0.78280    0.28280   1.00
Zn1      0.28280    0.71720    0.28280   1.00
Zn1      0.28280    0.78280    0.21720   1.00
Zn1      0.21720    0.71720    0.21720   1.00
O2       0.22650    0.77350    0.33820   1.00
O2       0.22650    0.83820    0.27350   1.00
O2       0.16180    0.77350    0.27350   1.00
O2       0.27350    0.72650    0.33820   1.00
O2       0.33820    0.72650    0.27350   1.00
O2       0.27350    0.66180    0.27350   1.00
O2       0.27350    0.83820    0.22650   1.00
O2       0.33820    0.77350    0.22650   1.00
O2       0.27350    0.77350    0.16180   1.00
O2       0.16180    0.72650    0.22650   1.00
O2       0.22650    0.66180    0.22650   1.00
O2       0.22650    0.72650    0.16180   1.00
C1       0.25000    0.75000    0.35520   1.00
C1       0.25000    0.85520    0.25000   1.00
C1       0.14480    0.75000    0.25000   1.00
C1       0.35520    0.75000    0.25000   1.00
C1       0.25000    0.64480    0.25000   1.00
C1       0.25000    0.75000    0.14480   1.00
O1       0.75000    0.25000    0.25000   1.00
Zn1      0.71720    0.28280    0.28280   1.00
Zn1      0.78280    0.21720    0.28280   1.00
Zn1      0.78280    0.28280    0.21720   1.00
Zn1      0.71720    0.21720    0.21720   1.00
O2       0.72650    0.27350    0.33820   1.00
O2       0.72650    0.33820    0.27350   1.00
O2       0.66180    0.27350    0.27350   1.00
O2       0.77350    0.22650    0.33820   1.00
O2       0.83820    0.22650    0.27350   1.00
O2       0.77350    0.16180    0.27350   1.00
O2       0.77350    0.33820    0.22650   1.00
O2       0.83820    0.27350    0.22650   1.00
O2       0.77350    0.27350    0.16180   1.00
O2       0.66180    0.22650    0.22650   1.00
O2       0.72650    0.16180    0.22650   1.00
O2       0.72650    0.22650    0.16180   1.00
C1       0.75000    0.25000    0.35520   1.00
C1       0.75000    0.35520    0.25000   1.00
C1       0.64480    0.25000    0.25000   1.00
C1       0.85520    0.25000    0.25000   1.00
C1       0.75000    0.14480    0.25000   1.00
C1       0.75000    0.25000    0.14480   1.00
O1       0.25000    0.25000    0.25000   1.00
Zn1      0.28280    0.21720    0.21720   1.00
Zn1      0.21720    0.28280    0.21720   1.00
Zn1      0.21720    0.21720    0.28280   1.00
Zn1      0.28280    0.28280    0.28280   1.00
O2       0.27350    0.22650    0.16180   1.00
O2       0.27350    0.16180    0.22650   1.00
O2       0.33820    0.22650    0.22650   1.00
O2       0.22650    0.27350    0.16180   1.00
O2       0.16180    0.27350    0.22650   1.00
O2       0.22650    0.33820    0.22650   1.00
O2       0.22650    0.16180    0.27350   1.00
O2       0.16180    0.22650    0.27350   1.00
O2       0.22650    0.22650    0.33820   1.00
O2       0.33820    0.27350    0.27350   1.00
O2       0.27350    0.33820    0.27350   1.00
O2       0.27350    0.27350    0.33820   1.00
C1       0.25000    0.25000    0.14480   1.00
C1       0.25000    0.14480    0.25000   1.00
C1       0.35520    0.25000    0.25000   1.00
C1       0.14480    0.25000    0.25000   1.00
C1       0.25000    0.35520    0.25000   1.00
C1       0.25000    0.25000    0.35520   1.00
O1       0.75000    0.75000    0.25000   1.00
Zn1      0.78280    0.71720    0.21720   1.00
Zn1      0.71720    0.78280    0.21720   1.00
Zn1      0.71720    0.71720    0.28280   1.00
Zn1      0.78280    0.78280    0.28280   1.00
O2       0.77350    0.72650    0.16180   1.00
O2       0.77350    0.66180    0.22650   1.00
O2       0.83820    0.72650    0.22650   1.00
O2       0.72650    0.77350    0.16180   1.00
O2       0.66180    0.77350    0.22650   1.00
O2       0.72650    0.83820    0.22650   1.00
O2       0.72650    0.66180    0.27350   1.00
O2       0.66180    0.72650    0.27350   1.00
O2       0.72650    0.72650    0.33820   1.00
O2       0.83820    0.77350    0.27350   1.00
O2       0.77350    0.83820    0.27350   1.00
O2       0.77350    0.77350    0.33820   1.00
C1       0.75000    0.75000    0.14480   1.00
C1       0.75000    0.64480    0.25000   1.00
C1       0.85520    0.75000    0.25000   1.00
C1       0.64480    0.75000    0.25000   1.00
C1       0.75000    0.85520    0.25000   1.00
C1       0.75000    0.75000    0.35520   1.00
O1       0.75000    0.25000    0.75000   1.00
Zn1      0.78280    0.21720    0.71720   1.00
Zn1      0.71720    0.28280    0.71720   1.00
Zn1      0.71720    0.21720    0.78280   1.00
Zn1      0.78280    0.28280    0.78280   1.00
O2       0.77350    0.22650    0.66180   1.00
O2       0.77350    0.16180    0.72650   1.00
O2       0.83820    0.22650    0.72650   1.00
O2       0.72650    0.27350    0.66180   1.00
O2       0.66180    0.27350    0.72650   1.00
O2       0.72650    0.33820    0.72650   1.00
O2       0.72650    0.16180    0.77350   1.00
O2       0.66180    0.22650    0.77350   1.00
O2       0.72650    0.22650    0.83820   1.00
O2       0.83820    0.27350    0.77350   1.00
O2       0.77350    0.33820    0.77350   1.00
O2       0.77350    0.27350    0.83820   1.00
C1       0.75000    0.25000    0.64480   1.00
C1       0.75000    0.14480    0.75000   1.00
C1       0.85520    0.25000    0.75000   1.00
C1       0.64480    0.25000    0.75000   1.00
C1       0.75000    0.35520    0.75000   1.00
C1       0.75000    0.25000    0.85520   1.00
O1       0.25000    0.75000    0.75000   1.00
Zn1      0.28280    0.71720    0.71720   1.00
Zn1      0.21720    0.78280    0.71720   1.00
Zn1      0.21720    0.71720    0.78280   1.00
Zn1      0.28280    0.78280    0.78280   1.00
O2       0.27350    0.72650    0.66180   1.00
O2       0.27350    0.66180    0.72650   1.00
O2       0.33820    0.72650    0.72650   1.00
O2       0.22650    0.77350    0.66180   1.00
O2       0.16180    0.77350    0.72650   1.00
O2       0.22650    0.83820    0.72650   1.00
O2       0.22650    0.66180    0.77350   1.00
O2       0.16180    0.72650    0.77350   1.00
O2       0.22650    0.72650    0.83820   1.00
O2       0.33820    0.77350    0.77350   1.00
O2       0.27350    0.83820    0.77350   1.00
O2       0.27350    0.77350    0.83820   1.00
C1       0.25000    0.75000    0.64480   1.00
C1       0.25000    0.64480    0.75000   1.00
C1       0.35520    0.75000    0.75000   1.00
C1       0.14480    0.75000    0.75000   1.00
C1       0.25000    0.85520    0.75000   1.00
C1       0.25000    0.75000    0.85520   1.00
C4       0.74985    0.75012    0.97915   1.00
C4       0.75015    0.74988    1.02085   1.00
C3a      0.71427    0.74942    0.95746   1.00
C3       0.74318    0.78430    1.04232   1.00
C3       0.78495    0.75120    0.95768   1.00
C3a      0.75759    0.71508    1.04254   1.00
C2       0.75005    0.75007    0.89488   1.00
C2       0.75005    0.75006    1.10512   1.00
C3       0.71495    0.74932    0.91595   1.00
C3       0.74303    0.78432    1.08363   1.00
C3       0.78501    0.75105    0.91637   1.00
C3       0.75735    0.71572    1.08405   1.00
C5       0.67506    0.74813    0.97772   1.00
H1       0.73743    0.81129    1.02691   1.00
H1       0.68784    0.74858    0.89979   1.00
H1       0.73733    0.81131    1.09901   1.00
H1       0.81258    0.75167    0.90099   1.00
H1       0.76282    0.68916    1.10021   1.00
C5       0.76530    0.67661    1.02228   1.00
H1       0.81254    0.75176    0.97309   1.00
H2       0.75920    0.65209    1.04256   1.00
H2       0.74499    0.67284    0.99731   1.00
H2       0.65257    0.73659    0.95744   1.00
H2       0.67603    0.72750    1.00269   1.00
N1       0.80568    0.67434    1.00857   1.00
C6       0.83773    0.67308    1.03073   1.00
C6       0.81749    0.67201    0.97154   1.00
C6       0.87046    0.67044    1.00759   1.00
C6       0.85759    0.66975    0.96995   1.00
H3       0.83752    0.67435    1.06197   1.00
H3       0.79817    0.67226    0.94700   1.00
H3       0.90037    0.66913    1.01713   1.00
H3       0.87545    0.66785    0.94425   1.00
N1       0.66362    0.78692    0.99143   1.00
C6       0.65866    0.79789    1.02846   1.00
C6       0.65508    0.81784    0.96927   1.00
C6       0.64730    0.83641    1.03005   1.00
C6       0.64503    0.84910    0.99241   1.00
H3       0.66331    0.77914    1.05300   1.00
H3       0.65636    0.81793    0.93803   1.00
H3       0.64136    0.85337    1.05575   1.00
H3       0.63691    0.87792    0.98287   1.00
C4       0.75012    0.97915    0.74985   1.00
C4       0.74988    1.02085    0.75015   1.00
C3a      0.74942    0.95746    0.71427   1.00
C3       0.78430    1.04232    0.74318   1.00
C3       0.75120    0.95768    0.78495   1.00
C3a      0.71508    1.04254    0.75759   1.00
C2       0.75007    0.89488    0.75005   1.00
C2       0.75006    1.10512    0.75005   1.00
C3       0.74932    0.91595    0.71495   1.00
C3       0.78432    1.08363    0.74303   1.00
C3       0.75105    0.91637    0.78501   1.00
C3       0.71572    1.08405    0.75735   1.00
C5       0.74813    0.97772    0.67506   1.00
H1       0.81129    1.02691    0.73743   1.00
H1       0.74858    0.89979    0.68784   1.00
H1       0.81131    1.09901    0.73733   1.00
H1       0.75167    0.90099    0.81258   1.00
H1       0.68916    1.10021    0.76282   1.00
C5       0.67661    1.02228    0.76530   1.00
H1       0.75176    0.97309    0.81254   1.00
H2       0.65209    1.04256    0.75920   1.00
H2       0.67284    0.99731    0.74499   1.00
H2       0.73659    0.95744    0.65257   1.00
H2       0.72750    1.00269    0.67603   1.00
N1       0.67434    1.00857    0.80568   1.00
C6       0.67308    1.03073    0.83773   1.00
C6       0.67201    0.97154    0.81749   1.00
C6       0.67044    1.00759    0.87046   1.00
C6       0.66975    0.96995    0.85759   1.00
H3       0.67435    1.06197    0.83752   1.00
H3       0.67226    0.94700    0.79817   1.00
H3       0.66913    1.01713    0.90037   1.00
H3       0.66785    0.94425    0.87545   1.00
N1       0.78692    0.99143    0.66362   1.00
C6       0.79789    1.02846    0.65866   1.00
C6       0.81784    0.96927    0.65508   1.00
C6       0.83641    1.03005    0.64730   1.00
C6       0.84910    0.99241    0.64503   1.00
H3       0.77914    1.05300    0.66331   1.00
H3       0.81793    0.93803    0.65636   1.00
H3       0.85337    1.05575    0.64136   1.00
H3       0.87792    0.98287    0.63691   1.00
C4       0.52085    0.74985    0.74988   1.00
C4       0.47915    0.75015    0.75012   1.00
C3a      0.54254    0.71427    0.75058   1.00
C3       0.45768    0.74318    0.71570   1.00
C3       0.54232    0.78495    0.74880   1.00
C3a      0.45746    0.75759    0.78492   1.00
C2       0.60512    0.75005    0.74993   1.00
C2       0.39488    0.75005    0.74994   1.00
C3       0.58405    0.71495    0.75068   1.00
C3       0.41637    0.74303    0.71568   1.00
C3       0.58363    0.78501    0.74895   1.00
C3       0.41595    0.75735    0.78428   1.00
C5       0.52228    0.67506    0.75187   1.00
H1       0.47309    0.73743    0.68871   1.00
H1       0.60021    0.68784    0.75142   1.00
H1       0.40099    0.73733    0.68869   1.00
H1       0.59901    0.81258    0.74833   1.00
H1       0.39979    0.76282    0.81084   1.00
C5       0.47772    0.76530    0.82339   1.00
H1       0.52691    0.81254    0.74824   1.00
H2       0.45744    0.75920    0.84791   1.00
H2       0.50269    0.74499    0.82716   1.00
H2       0.54256    0.65257    0.76341   1.00
H2       0.49731    0.67603    0.77250   1.00
N1       0.49143    0.80568    0.82566   1.00
C6       0.46927    0.83773    0.82692   1.00
C6       0.52846    0.81749    0.82799   1.00
C6       0.49241    0.87046    0.82956   1.00
C6       0.53005    0.85759    0.83025   1.00
H3       0.43803    0.83752    0.82565   1.00
H3       0.55300    0.79817    0.82774   1.00
H3       0.48287    0.90037    0.83087   1.00
H3       0.55575    0.87545    0.83215   1.00
N1       0.50857    0.66362    0.71308   1.00
C6       0.47154    0.65866    0.70211   1.00
C6       0.53073    0.65508    0.68216   1.00
C6       0.46995    0.64730    0.66359   1.00
C6       0.50759    0.64503    0.65090   1.00
H3       0.44700    0.66331    0.72086   1.00
H3       0.56197    0.65636    0.68207   1.00
H3       0.44425    0.64136    0.64663   1.00
H3       0.51713    0.63691    0.62208   1.00
C4       0.97915    0.74985    0.75012   1.00
C4       1.02085    0.75015    0.74988   1.00
C3a      0.95746    0.71427    0.74942   1.00
C3       1.04232    0.74318    0.78430   1.00
C3       0.95768    0.78495    0.75120   1.00
C3a      1.04254    0.75759    0.71508   1.00
C2       0.89488    0.75005    0.75007   1.00
C2       1.10512    0.75005    0.75006   1.00
C3       0.91595    0.71495    0.74932   1.00
C3       1.08363    0.74303    0.78432   1.00
C3       0.91637    0.78501    0.75105   1.00
C3       1.08405    0.75735    0.71572   1.00
C5       0.97772    0.67506    0.74813   1.00
H1       1.02691    0.73743    0.81129   1.00
H1       0.89979    0.68784    0.74858   1.00
H1       1.09901    0.73733    0.81131   1.00
H1       0.90099    0.81258    0.75167   1.00
H1       1.10021    0.76282    0.68916   1.00
C5       1.02228    0.76530    0.67661   1.00
H1       0.97309    0.81254    0.75176   1.00
H2       1.04256    0.75920    0.65209   1.00
H2       0.99731    0.74499    0.67284   1.00
H2       0.95744    0.65257    0.73659   1.00
H2       1.00269    0.67603    0.72750   1.00
N1       1.00857    0.80568    0.67434   1.00
C6       1.03073    0.83773    0.67308   1.00
C6       0.97154    0.81749    0.67201   1.00
C6       1.00759    0.87046    0.67044   1.00
C6       0.96995    0.85759    0.66975   1.00
H3       1.06197    0.83752    0.67435   1.00
H3       0.94700    0.79817    0.67226   1.00
H3       1.01713    0.90037    0.66913   1.00
H3       0.94425    0.87545    0.66785   1.00
N1       0.99143    0.66362    0.78692   1.00
C6       1.02846    0.65866    0.79789   1.00
C6       0.96927    0.65508    0.81784   1.00
C6       1.03005    0.64730    0.83641   1.00
C6       0.99241    0.64503    0.84910   1.00
H3       1.05300    0.66331    0.77914   1.00
H3       0.93803    0.65636    0.81793   1.00
H3       1.05575    0.64136    0.85337   1.00
H3       0.98287    0.63691    0.87792   1.00
C4       0.74988    0.52085    0.74985   1.00
C4       0.75012    0.47915    0.75015   1.00
C3a      0.75058    0.54254    0.71427   1.00
C3       0.71570    0.45768    0.74318   1.00
C3       0.74880    0.54232    0.78495   1.00
C3a      0.78492    0.45746    0.75759   1.00
C2       0.74993    0.60512    0.75005   1.00
C2       0.74994    0.39488    0.75005   1.00
C3       0.75068    0.58405    0.71495   1.00
C3       0.71568    0.41637    0.74303   1.00
C3       0.74895    0.58363    0.78501   1.00
C3       0.78428    0.41595    0.75735   1.00
C5       0.75187    0.52228    0.67506   1.00
H1       0.68871    0.47309    0.73743   1.00
H1       0.75142    0.60021    0.68784   1.00
H1       0.68869    0.40099    0.73733   1.00
H1       0.74833    0.59901    0.81258   1.00
H1       0.81084    0.39979    0.76282   1.00
C5       0.82339    0.47772    0.76530   1.00
H1       0.74824    0.52691    0.81254   1.00
H2       0.84791    0.45744    0.75920   1.00
H2       0.82716    0.50269    0.74499   1.00
H2       0.76341    0.54256    0.65257   1.00
H2       0.77250    0.49731    0.67603   1.00
N1       0.82566    0.49143    0.80568   1.00
C6       0.82692    0.46927    0.83773   1.00
C6       0.82799    0.52846    0.81749   1.00
C6       0.82956    0.49241    0.87046   1.00
C6       0.83025    0.53005    0.85759   1.00
H3       0.82565    0.43803    0.83752   1.00
H3       0.82774    0.55300    0.79817   1.00
H3       0.83087    0.48287    0.90037   1.00
H3       0.83215    0.55575    0.87545   1.00
N1       0.71308    0.50857    0.66362   1.00
C6       0.70211    0.47154    0.65866   1.00
C6       0.68216    0.53073    0.65508   1.00
C6       0.66359    0.46995    0.64730   1.00
C6       0.65090    0.50759    0.64503   1.00
H3       0.72086    0.44700    0.66331   1.00
H3       0.68207    0.56197    0.65636   1.00
H3       0.64663    0.44425    0.64136   1.00
H3       0.62208    0.51713    0.63691   1.00
C4       0.74985    0.74988    0.52085   1.00
C4       0.75015    0.75012    0.47915   1.00
C3a      0.71427    0.75058    0.54254   1.00
C3       0.74318    0.71570    0.45768   1.00
C3       0.78495    0.74880    0.54232   1.00
C3a      0.75759    0.78492    0.45746   1.00
C2       0.75005    0.74993    0.60512   1.00
C2       0.75005    0.74994    0.39488   1.00
C3       0.71495    0.75068    0.58405   1.00
C3       0.74303    0.71568    0.41637   1.00
C3       0.78501    0.74895    0.58363   1.00
C3       0.75735    0.78428    0.41595   1.00
C5       0.67506    0.75187    0.52228   1.00
H1       0.73743    0.68871    0.47309   1.00
H1       0.68784    0.75142    0.60021   1.00
H1       0.73733    0.68869    0.40099   1.00
H1       0.81258    0.74833    0.59901   1.00
H1       0.76282    0.81084    0.39979   1.00
C5       0.76530    0.82339    0.47772   1.00
H1       0.81254    0.74824    0.52691   1.00
H2       0.75920    0.84791    0.45744   1.00
H2       0.74499    0.82716    0.50269   1.00
H2       0.65257    0.76341    0.54256   1.00
H2       0.67603    0.77250    0.49731   1.00
N1       0.80568    0.82566    0.49143   1.00
C6       0.83773    0.82692    0.46927   1.00
C6       0.81749    0.82799    0.52846   1.00
C6       0.87046    0.82956    0.49241   1.00
C6       0.85759    0.83025    0.53005   1.00
H3       0.83752    0.82565    0.43803   1.00
H3       0.79817    0.82774    0.55300   1.00
H3       0.90037    0.83087    0.48287   1.00
H3       0.87545    0.83215    0.55575   1.00
N1       0.66362    0.71308    0.50857   1.00
C6       0.65866    0.70211    0.47154   1.00
C6       0.65508    0.68216    0.53073   1.00
C6       0.64730    0.66359    0.46995   1.00
C6       0.64503    0.65090    0.50759   1.00
H3       0.66331    0.72086    0.44700   1.00
H3       0.65636    0.68207    0.56197   1.00
H3       0.64136    0.64663    0.44425   1.00
H3       0.63691    0.62208    0.51713   1.00
C4       0.24985    0.25012    0.97915   1.00
C4       0.25015    0.24988    1.02085   1.00
C3a      0.21427    0.24942    0.95746   1.00
C3       0.24318    0.28430    1.04232   1.00
C3       0.28495    0.25120    0.95768   1.00
C3a      0.25759    0.21508    1.04254   1.00
C2       0.25005    0.25007    0.89488   1.00
C2       0.25005    0.25006    1.10512   1.00
C3       0.21495    0.24932    0.91595   1.00
C3       0.24303    0.28432    1.08363   1.00
C3       0.28501    0.25105    0.91637   1.00
C3       0.25735    0.21572    1.08405   1.00
C5       0.17506    0.24813    0.97772   1.00
H1       0.23743    0.31129    1.02691   1.00
H1       0.18784    0.24858    0.89979   1.00
H1       0.23733    0.31131    1.09901   1.00
H1       0.31258    0.25167    0.90099   1.00
H1       0.26282    0.18916    1.10021   1.00
C5       0.26530    0.17661    1.02228   1.00
H1       0.31254    0.25176    0.97309   1.00
H2       0.25920    0.15209    1.04256   1.00
H2       0.24499    0.17284    0.99731   1.00
H2       0.15257    0.23659    0.95744   1.00
H2       0.17603    0.22750    1.00269   1.00
N1       0.30568    0.17434    1.00857   1.00
C6       0.33773    0.17308    1.03073   1.00
C6       0.31749    0.17201    0.97154   1.00
C6       0.37046    0.17044    1.00759   1.00
C6       0.35759    0.16975    0.96995   1.00
H3       0.33752    0.17435    1.06197   1.00
H3       0.29817    0.17226    0.94700   1.00
H3       0.40037    0.16913    1.01713   1.00
H3       0.37545    0.16785    0.94425   1.00
N1       0.16362    0.28692    0.99143   1.00
C6       0.15866    0.29789    1.02846   1.00
C6       0.15508    0.31784    0.96927   1.00
C6       0.14730    0.33641    1.03005   1.00
C6       0.14503    0.34910    0.99241   1.00
H3       0.16331    0.27914    1.05300   1.00
H3       0.15636    0.31793    0.93803   1.00
H3       0.14136    0.35337    1.05575   1.00
H3       0.13691    0.37792    0.98287   1.00
C4       0.25012    0.47915    0.74985   1.00
C4       0.24988    0.52085    0.75015   1.00
C3a      0.24942    0.45746    0.71427   1.00
C3       0.28430    0.54232    0.74318   1.00
C3       0.25120    0.45768    0.78495   1.00
C3a      0.21508    0.54254    0.75759   1.00
C2       0.25007    0.39488    0.75005   1.00
C2       0.25006    0.60512    0.75005   1.00
C3       0.24932    0.41595    0.71495   1.00
C3       0.28432    0.58363    0.74303   1.00
C3       0.25105    0.41637    0.78501   1.00
C3       0.21572    0.58405    0.75735   1.00
C5       0.24813    0.47772    0.67506   1.00
H1       0.31129    0.52691    0.73743   1.00
H1       0.24858    0.39979    0.68784   1.00
H1       0.31131    0.59901    0.73733   1.00
H1       0.25167    0.40099    0.81258   1.00
H1       0.18916    0.60021    0.76282   1.00
C5       0.17661    0.52228    0.76530   1.00
H1       0.25176    0.47309    0.81254   1.00
H2       0.15209    0.54256    0.75920   1.00
H2       0.17284    0.49731    0.74499   1.00
H2       0.23659    0.45744    0.65257   1.00
H2       0.22750    0.50269    0.67603   1.00
N1       0.17434    0.50857    0.80568   1.00
C6       0.17308    0.53073    0.83773   1.00
C6       0.17201    0.47154    0.81749   1.00
C6       0.17044    0.50759    0.87046   1.00
C6       0.16975    0.46995    0.85759   1.00
H3       0.17435    0.56197    0.83752   1.00
H3       0.17226    0.44700    0.79817   1.00
H3       0.16913    0.51713    0.90037   1.00
H3       0.16785    0.44425    0.87545   1.00
N1       0.28692    0.49143    0.66362   1.00
C6       0.29789    0.52846    0.65866   1.00
C6       0.31784    0.46927    0.65508   1.00
C6       0.33641    0.53005    0.64730   1.00
C6       0.34910    0.49241    0.64503   1.00
H3       0.27914    0.55300    0.66331   1.00
H3       0.31793    0.43803    0.65636   1.00
H3       0.35337    0.55575    0.64136   1.00
H3       0.37792    0.48287    0.63691   1.00
C4       0.02085    0.24985    0.74988   1.00
C4       -0.02085   0.25015    0.75012   1.00
C3a      0.04254    0.21427    0.75058   1.00
C3       -0.04232   0.24318    0.71570   1.00
C3       0.04232    0.28495    0.74880   1.00
C3a      -0.04254   0.25759    0.78492   1.00
C2       0.10512    0.25005    0.74993   1.00
C2       -0.10512   0.25005    0.74994   1.00
C3       0.08405    0.21495    0.75068   1.00
C3       -0.08363   0.24303    0.71568   1.00
C3       0.08363    0.28501    0.74895   1.00
C3       -0.08405   0.25735    0.78428   1.00
C5       0.02228    0.17506    0.75187   1.00
H1       -0.02691   0.23743    0.68871   1.00
H1       0.10021    0.18784    0.75142   1.00
H1       -0.09901   0.23733    0.68869   1.00
H1       0.09901    0.31258    0.74833   1.00
H1       -0.10021   0.26282    0.81084   1.00
C5       -0.02228   0.26530    0.82339   1.00
H1       0.02691    0.31254    0.74824   1.00
H2       -0.04256   0.25920    0.84791   1.00
H2       0.00269    0.24499    0.82716   1.00
H2       0.04256    0.15257    0.76341   1.00
H2       -0.00269   0.17603    0.77250   1.00
N1       -0.00857   0.30568    0.82566   1.00
C6       -0.03073   0.33773    0.82692   1.00
C6       0.02846    0.31749    0.82799   1.00
C6       -0.00759   0.37046    0.82956   1.00
C6       0.03005    0.35759    0.83025   1.00
H3       -0.06197   0.33752    0.82565   1.00
H3       0.05300    0.29817    0.82774   1.00
H3       -0.01713   0.40037    0.83087   1.00
H3       0.05575    0.37545    0.83215   1.00
N1       0.00857    0.16362    0.71308   1.00
C6       -0.02846   0.15866    0.70211   1.00
C6       0.03073    0.15508    0.68216   1.00
C6       -0.03005   0.14730    0.66359   1.00
C6       0.00759    0.14503    0.65090   1.00
H3       -0.05300   0.16331    0.72086   1.00
H3       0.06197    0.15636    0.68207   1.00
H3       -0.05575   0.14136    0.64663   1.00
H3       0.01713    0.13691    0.62208   1.00
C4       0.47915    0.24985    0.75012   1.00
C4       0.52085    0.25015    0.74988   1.00
C3a      0.45746    0.21427    0.74942   1.00
C3       0.54232    0.24318    0.78430   1.00
C3       0.45768    0.28495    0.75120   1.00
C3a      0.54254    0.25759    0.71508   1.00
C2       0.39488    0.25005    0.75007   1.00
C2       0.60512    0.25005    0.75006   1.00
C3       0.41595    0.21495    0.74932   1.00
C3       0.58363    0.24303    0.78432   1.00
C3       0.41637    0.28501    0.75105   1.00
C3       0.58405    0.25735    0.71572   1.00
C5       0.47772    0.17506    0.74813   1.00
H1       0.52691    0.23743    0.81129   1.00
H1       0.39979    0.18784    0.74858   1.00
H1       0.59901    0.23733    0.81131   1.00
H1       0.40099    0.31258    0.75167   1.00
H1       0.60021    0.26282    0.68916   1.00
C5       0.52228    0.26530    0.67661   1.00
H1       0.47309    0.31254    0.75176   1.00
H2       0.54256    0.25920    0.65209   1.00
H2       0.49731    0.24499    0.67284   1.00
H2       0.45744    0.15257    0.73659   1.00
H2       0.50269    0.17603    0.72750   1.00
N1       0.50857    0.30568    0.67434   1.00
C6       0.53073    0.33773    0.67308   1.00
C6       0.47154    0.31749    0.67201   1.00
C6       0.50759    0.37046    0.67044   1.00
C6       0.46995    0.35759    0.66975   1.00
H3       0.56197    0.33752    0.67435   1.00
H3       0.44700    0.29817    0.67226   1.00
H3       0.51713    0.40037    0.66913   1.00
H3       0.44425    0.37545    0.66785   1.00
N1       0.49143    0.16362    0.78692   1.00
C6       0.52846    0.15866    0.79789   1.00
C6       0.46927    0.15508    0.81784   1.00
C6       0.53005    0.14730    0.83641   1.00
C6       0.49241    0.14503    0.84910   1.00
H3       0.55300    0.16331    0.77914   1.00
H3       0.43803    0.15636    0.81793   1.00
H3       0.55575    0.14136    0.85337   1.00
H3       0.48287    0.13691    0.87792   1.00
C4       0.24988    0.02085    0.74985   1.00
C4       0.25012    -0.02085   0.75015   1.00
C3a      0.25058    0.04254    0.71427   1.00
C3       0.21570    -0.04232   0.74318   1.00
C3       0.24880    0.04232    0.78495   1.00
C3a      0.28492    -0.04254   0.75759   1.00
C2       0.24993    0.10512    0.75005   1.00
C2       0.24994    -0.10512   0.75005   1.00
C3       0.25068    0.08405    0.71495   1.00
C3       0.21568    -0.08363   0.74303   1.00
C3       0.24895    0.08363    0.78501   1.00
C3       0.28428    -0.08405   0.75735   1.00
C5       0.25187    0.02228    0.67506   1.00
H1       0.18871    -0.02691   0.73743   1.00
H1       0.25142    0.10021    0.68784   1.00
H1       0.18869    -0.09901   0.73733   1.00
H1       0.24833    0.09901    0.81258   1.00
H1       0.31084    -0.10021   0.76282   1.00
C5       0.32339    -0.02228   0.76530   1.00
H1       0.24824    0.02691    0.81254   1.00
H2       0.34791    -0.04256   0.75920   1.00
H2       0.32716    0.00269    0.74499   1.00
H2       0.26341    0.04256    0.65257   1.00
H2       0.27250    -0.00269   0.67603   1.00
N1       0.32566    -0.00857   0.80568   1.00
C6       0.32692    -0.03073   0.83773   1.00
C6       0.32799    0.02846    0.81749   1.00
C6       0.32956    -0.00759   0.87046   1.00
C6       0.33025    0.03005    0.85759   1.00
H3       0.32565    -0.06197   0.83752   1.00
H3       0.32774    0.05300    0.79817   1.00
H3       0.33087    -0.01713   0.90037   1.00
H3       0.33215    0.05575    0.87545   1.00
N1       0.21308    0.00857    0.66362   1.00
C6       0.20211    -0.02846   0.65866   1.00
C6       0.18216    0.03073    0.65508   1.00
C6       0.16359    -0.03005   0.64730   1.00
C6       0.15090    0.00759    0.64503   1.00
H3       0.22086    -0.05300   0.66331   1.00
H3       0.18207    0.06197    0.65636   1.00
H3       0.14663    -0.05575   0.64136   1.00
H3       0.12208    0.01713    0.63691   1.00
C4       0.24985    0.24988    0.52085   1.00
C4       0.25015    0.25012    0.47915   1.00
C3a      0.21427    0.25058    0.54254   1.00
C3       0.24318    0.21570    0.45768   1.00
C3       0.28495    0.24880    0.54232   1.00
C3a      0.25759    0.28492    0.45746   1.00
C2       0.25005    0.24993    0.60512   1.00
C2       0.25005    0.24994    0.39488   1.00
C3       0.21495    0.25068    0.58405   1.00
C3       0.24303    0.21568    0.41637   1.00
C3       0.28501    0.24895    0.58363   1.00
C3       0.25735    0.28428    0.41595   1.00
C5       0.17506    0.25187    0.52228   1.00
H1       0.23743    0.18871    0.47309   1.00
H1       0.18784    0.25142    0.60021   1.00
H1       0.23733    0.18869    0.40099   1.00
H1       0.31258    0.24833    0.59901   1.00
H1       0.26282    0.31084    0.39979   1.00
C5       0.26530    0.32339    0.47772   1.00
H1       0.31254    0.24824    0.52691   1.00
H2       0.25920    0.34791    0.45744   1.00
H2       0.24499    0.32716    0.50269   1.00
H2       0.15257    0.26341    0.54256   1.00
H2       0.17603    0.27250    0.49731   1.00
N1       0.30568    0.32566    0.49143   1.00
C6       0.33773    0.32692    0.46927   1.00
C6       0.31749    0.32799    0.52846   1.00
C6       0.37046    0.32956    0.49241   1.00
C6       0.35759    0.33025    0.53005   1.00
H3       0.33752    0.32565    0.43803   1.00
H3       0.29817    0.32774    0.55300   1.00
H3       0.40037    0.33087    0.48287   1.00
H3       0.37545    0.33215    0.55575   1.00
N1       0.16362    0.21308    0.50857   1.00
C6       0.15866    0.20211    0.47154   1.00
C6       0.15508    0.18216    0.53073   1.00
C6       0.14730    0.16359    0.46995   1.00
C6       0.14503    0.15090    0.50759   1.00
H3       0.16331    0.22086    0.44700   1.00
H3       0.15636    0.18207    0.56197   1.00
H3       0.14136    0.14663    0.44425   1.00
H3       0.13691    0.12208    0.51713   1.00
C4       0.24985    0.75012    0.47915   1.00
C4       0.25015    0.74988    0.52085   1.00
C3a      0.21427    0.74942    0.45746   1.00
C3       0.24318    0.78430    0.54232   1.00
C3       0.28495    0.75120    0.45768   1.00
C3a      0.25759    0.71508    0.54254   1.00
C2       0.25005    0.75007    0.39488   1.00
C2       0.25005    0.75006    0.60512   1.00
C3       0.21495    0.74932    0.41595   1.00
C3       0.24303    0.78432    0.58363   1.00
C3       0.28501    0.75105    0.41637   1.00
C3       0.25735    0.71572    0.58405   1.00
C5       0.17506    0.74813    0.47772   1.00
H1       0.23743    0.81129    0.52691   1.00
H1       0.18784    0.74858    0.39979   1.00
H1       0.23733    0.81131    0.59901   1.00
H1       0.31258    0.75167    0.40099   1.00
H1       0.26282    0.68916    0.60021   1.00
C5       0.26530    0.67661    0.52228   1.00
H1       0.31254    0.75176    0.47309   1.00
H2       0.25920    0.65209    0.54256   1.00
H2       0.24499    0.67284    0.49731   1.00
H2       0.15257    0.73659    0.45744   1.00
H2       0.17603    0.72750    0.50269   1.00
N1       0.30568    0.67434    0.50857   1.00
C6       0.33773    0.67308    0.53073   1.00
C6       0.31749    0.67201    0.47154   1.00
C6       0.37046    0.67044    0.50759   1.00
C6       0.35759    0.66975    0.46995   1.00
H3       0.33752    0.67435    0.56197   1.00
H3       0.29817    0.67226    0.44700   1.00
H3       0.40037    0.66913    0.51713   1.00
H3       0.37545    0.66785    0.44425   1.00
N1       0.16362    0.78692    0.49143   1.00
C6       0.15866    0.79789    0.52846   1.00
C6       0.15508    0.81784    0.46927   1.00
C6       0.14730    0.83641    0.53005   1.00
C6       0.14503    0.84910    0.49241   1.00
H3       0.16331    0.77914    0.55300   1.00
H3       0.15636    0.81793    0.43803   1.00
H3       0.14136    0.85337    0.55575   1.00
H3       0.13691    0.87792    0.48287   1.00
C4       0.25012    0.97915    0.24985   1.00
C4       0.24988    1.02085    0.25015   1.00
C3a      0.24942    0.95746    0.21427   1.00
C3       0.28430    1.04232    0.24318   1.00
C3       0.25120    0.95768    0.28495   1.00
C3a      0.21508    1.04254    0.25759   1.00
C2       0.25007    0.89488    0.25005   1.00
C2       0.25006    1.10512    0.25005   1.00
C3       0.24932    0.91595    0.21495   1.00
C3       0.28432    1.08363    0.24303   1.00
C3       0.25105    0.91637    0.28501   1.00
C3       0.21572    1.08405    0.25735   1.00
C5       0.24813    0.97772    0.17506   1.00
H1       0.31129    1.02691    0.23743   1.00
H1       0.24858    0.89979    0.18784   1.00
H1       0.31131    1.09901    0.23733   1.00
H1       0.25167    0.90099    0.31258   1.00
H1       0.18916    1.10021    0.26282   1.00
C5       0.17661    1.02228    0.26530   1.00
H1       0.25176    0.97309    0.31254   1.00
H2       0.15209    1.04256    0.25920   1.00
H2       0.17284    0.99731    0.24499   1.00
H2       0.23659    0.95744    0.15257   1.00
H2       0.22750    1.00269    0.17603   1.00
N1       0.17434    1.00857    0.30568   1.00
C6       0.17308    1.03073    0.33773   1.00
C6       0.17201    0.97154    0.31749   1.00
C6       0.17044    1.00759    0.37046   1.00
C6       0.16975    0.96995    0.35759   1.00
H3       0.17435    1.06197    0.33752   1.00
H3       0.17226    0.94700    0.29817   1.00
H3       0.16913    1.01713    0.40037   1.00
H3       0.16785    0.94425    0.37545   1.00
N1       0.28692    0.99143    0.16362   1.00
C6       0.29789    1.02846    0.15866   1.00
C6       0.31784    0.96927    0.15508   1.00
C6       0.33641    1.03005    0.14730   1.00
C6       0.34910    0.99241    0.14503   1.00
H3       0.27914    1.05300    0.16331   1.00
H3       0.31793    0.93803    0.15636   1.00
H3       0.35337    1.05575    0.14136   1.00
H3       0.37792    0.98287    0.13691   1.00
C4       0.02085    0.74985    0.24988   1.00
C4       -0.02085   0.75015    0.25012   1.00
C3a      0.04254    0.71427    0.25058   1.00
C3       -0.04232   0.74318    0.21570   1.00
C3       0.04232    0.78495    0.24880   1.00
C3a      -0.04254   0.75759    0.28492   1.00
C2       0.10512    0.75005    0.24993   1.00
C2       -0.10512   0.75005    0.24994   1.00
C3       0.08405    0.71495    0.25068   1.00
C3       -0.08363   0.74303    0.21568   1.00
C3       0.08363    0.78501    0.24895   1.00
C3       -0.08405   0.75735    0.28428   1.00
C5       0.02228    0.67506    0.25187   1.00
H1       -0.02691   0.73743    0.18871   1.00
H1       0.10021    0.68784    0.25142   1.00
H1       -0.09901   0.73733    0.18869   1.00
H1       0.09901    0.81258    0.24833   1.00
H1       -0.10021   0.76282    0.31084   1.00
C5       -0.02228   0.76530    0.32339   1.00
H1       0.02691    0.81254    0.24824   1.00
H2       -0.04256   0.75920    0.34791   1.00
H2       0.00269    0.74499    0.32716   1.00
H2       0.04256    0.65257    0.26341   1.00
H2       -0.00269   0.67603    0.27250   1.00
N1       -0.00857   0.80568    0.32566   1.00
C6       -0.03073   0.83773    0.32692   1.00
C6       0.02846    0.81749    0.32799   1.00
C6       -0.00759   0.87046    0.32956   1.00
C6       0.03005    0.85759    0.33025   1.00
H3       -0.06197   0.83752    0.32565   1.00
H3       0.05300    0.79817    0.32774   1.00
H3       -0.01713   0.90037    0.33087   1.00
H3       0.05575    0.87545    0.33215   1.00
N1       0.00857    0.66362    0.21308   1.00
C6       -0.02846   0.65866    0.20211   1.00
C6       0.03073    0.65508    0.18216   1.00
C6       -0.03005   0.64730    0.16359   1.00
C6       0.00759    0.64503    0.15090   1.00
H3       -0.05300   0.66331    0.22086   1.00
H3       0.06197    0.65636    0.18207   1.00
H3       -0.05575   0.64136    0.14663   1.00
H3       0.01713    0.63691    0.12208   1.00
C4       0.47915    0.74985    0.25012   1.00
C4       0.52085    0.75015    0.24988   1.00
C3a      0.45746    0.71427    0.24942   1.00
C3       0.54232    0.74318    0.28430   1.00
C3       0.45768    0.78495    0.25120   1.00
C3a      0.54254    0.75759    0.21508   1.00
C2       0.39488    0.75005    0.25007   1.00
C2       0.60512    0.75005    0.25006   1.00
C3       0.41595    0.71495    0.24932   1.00
C3       0.58363    0.74303    0.28432   1.00
C3       0.41637    0.78501    0.25105   1.00
C3       0.58405    0.75735    0.21572   1.00
C5       0.47772    0.67506    0.24813   1.00
H1       0.52691    0.73743    0.31129   1.00
H1       0.39979    0.68784    0.24858   1.00
H1       0.59901    0.73733    0.31131   1.00
H1       0.40099    0.81258    0.25167   1.00
H1       0.60021    0.76282    0.18916   1.00
C5       0.52228    0.76530    0.17661   1.00
H1       0.47309    0.81254    0.25176   1.00
H2       0.54256    0.75920    0.15209   1.00
H2       0.49731    0.74499    0.17284   1.00
H2       0.45744    0.65257    0.23659   1.00
H2       0.50269    0.67603    0.22750   1.00
N1       0.50857    0.80568    0.17434   1.00
C6       0.53073    0.83773    0.17308   1.00
C6       0.47154    0.81749    0.17201   1.00
C6       0.50759    0.87046    0.17044   1.00
C6       0.46995    0.85759    0.16975   1.00
H3       0.56197    0.83752    0.17435   1.00
H3       0.44700    0.79817    0.17226   1.00
H3       0.51713    0.90037    0.16913   1.00
H3       0.44425    0.87545    0.16785   1.00
N1       0.49143    0.66362    0.28692   1.00
C6       0.52846    0.65866    0.29789   1.00
C6       0.46927    0.65508    0.31784   1.00
C6       0.53005    0.64730    0.33641   1.00
C6       0.49241    0.64503    0.34910   1.00
H3       0.55300    0.66331    0.27914   1.00
H3       0.43803    0.65636    0.31793   1.00
H3       0.55575    0.64136    0.35337   1.00
H3       0.48287    0.63691    0.37792   1.00
C4       0.24988    0.52085    0.24985   1.00
C4       0.25012    0.47915    0.25015   1.00
C3a      0.25058    0.54254    0.21427   1.00
C3       0.21570    0.45768    0.24318   1.00
C3       0.24880    0.54232    0.28495   1.00
C3a      0.28492    0.45746    0.25759   1.00
C2       0.24993    0.60512    0.25005   1.00
C2       0.24994    0.39488    0.25005   1.00
C3       0.25068    0.58405    0.21495   1.00
C3       0.21568    0.41637    0.24303   1.00
C3       0.24895    0.58363    0.28501   1.00
C3       0.28428    0.41595    0.25735   1.00
C5       0.25187    0.52228    0.17506   1.00
H1       0.18871    0.47309    0.23743   1.00
H1       0.25142    0.60021    0.18784   1.00
H1       0.18869    0.40099    0.23733   1.00
H1       0.24833    0.59901    0.31258   1.00
H1       0.31084    0.39979    0.26282   1.00
C5       0.32339    0.47772    0.26530   1.00
H1       0.24824    0.52691    0.31254   1.00
H2       0.34791    0.45744    0.25920   1.00
H2       0.32716    0.50269    0.24499   1.00
H2       0.26341    0.54256    0.15257   1.00
H2       0.27250    0.49731    0.17603   1.00
N1       0.32566    0.49143    0.30568   1.00
C6       0.32692    0.46927    0.33773   1.00
C6       0.32799    0.52846    0.31749   1.00
C6       0.32956    0.49241    0.37046   1.00
C6       0.33025    0.53005    0.35759   1.00
H3       0.32565    0.43803    0.33752   1.00
H3       0.32774    0.55300    0.29817   1.00
H3       0.33087    0.48287    0.40037   1.00
H3       0.33215    0.55575    0.37545   1.00
N1       0.21308    0.50857    0.16362   1.00
C6       0.20211    0.47154    0.15866   1.00
C6       0.18216    0.53073    0.15508   1.00
C6       0.16359    0.46995    0.14730   1.00
C6       0.15090    0.50759    0.14503   1.00
H3       0.22086    0.44700    0.16331   1.00
H3       0.18207    0.56197    0.15636   1.00
H3       0.14663    0.44425    0.14136   1.00
H3       0.12208    0.51713    0.13691   1.00
C4       0.24985    0.74988    0.02085   1.00
C4       0.25015    0.75012    -0.02085   1.00
C3a      0.21427    0.75058    0.04254   1.00
C3       0.24318    0.71570    -0.04232   1.00
C3       0.28495    0.74880    0.04232   1.00
C3a      0.25759    0.78492    -0.04254   1.00
C2       0.25005    0.74993    0.10512   1.00
C2       0.25005    0.74994    -0.10512   1.00
C3       0.21495    0.75068    0.08405   1.00
C3       0.24303    0.71568    -0.08363   1.00
C3       0.28501    0.74895    0.08363   1.00
C3       0.25735    0.78428    -0.08405   1.00
C5       0.17506    0.75187    0.02228   1.00
H1       0.23743    0.68871    -0.02691   1.00
H1       0.18784    0.75142    0.10021   1.00
H1       0.23733    0.68869    -0.09901   1.00
H1       0.31258    0.74833    0.09901   1.00
H1       0.26282    0.81084    -0.10021   1.00
C5       0.26530    0.82339    -0.02228   1.00
H1       0.31254    0.74824    0.02691   1.00
H2       0.25920    0.84791    -0.04256   1.00
H2       0.24499    0.82716    0.00269   1.00
H2       0.15257    0.76341    0.04256   1.00
H2       0.17603    0.77250    -0.00269   1.00
N1       0.30568    0.82566    -0.00857   1.00
C6       0.33773    0.82692    -0.03073   1.00
C6       0.31749    0.82799    0.02846   1.00
C6       0.37046    0.82956    -0.00759   1.00
C6       0.35759    0.83025    0.03005   1.00
H3       0.33752    0.82565    -0.06197   1.00
H3       0.29817    0.82774    0.05300   1.00
H3       0.40037    0.83087    -0.01713   1.00
H3       0.37545    0.83215    0.05575   1.00
N1       0.16362    0.71308    0.00857   1.00
C6       0.15866    0.70211    -0.02846   1.00
C6       0.15508    0.68216    0.03073   1.00
C6       0.14730    0.66359    -0.03005   1.00
C6       0.14503    0.65090    0.00759   1.00
H3       0.16331    0.72086    -0.05300   1.00
H3       0.15636    0.68207    0.06197   1.00
H3       0.14136    0.64663    -0.05575   1.00
H3       0.13691    0.62208    0.01713   1.00
C4       0.74985    0.25012    0.47915   1.00
C4       0.75015    0.24988    0.52085   1.00
C3a      0.71427    0.24942    0.45746   1.00
C3       0.74318    0.28430    0.54232   1.00
C3       0.78495    0.25120    0.45768   1.00
C3a      0.75759    0.21508    0.54254   1.00
C2       0.75005    0.25007    0.39488   1.00
C2       0.75005    0.25006    0.60512   1.00
C3       0.71495    0.24932    0.41595   1.00
C3       0.74303    0.28432    0.58363   1.00
C3       0.78501    0.25105    0.41637   1.00
C3       0.75735    0.21572    0.58405   1.00
C5       0.67506    0.24813    0.47772   1.00
H1       0.73743    0.31129    0.52691   1.00
H1       0.68784    0.24858    0.39979   1.00
H1       0.73733    0.31131    0.59901   1.00
H1       0.81258    0.25167    0.40099   1.00
H1       0.76282    0.18916    0.60021   1.00
C5       0.76530    0.17661    0.52228   1.00
H1       0.81254    0.25176    0.47309   1.00
H2       0.75920    0.15209    0.54256   1.00
H2       0.74499    0.17284    0.49731   1.00
H2       0.65257    0.23659    0.45744   1.00
H2       0.67603    0.22750    0.50269   1.00
N1       0.80568    0.17434    0.50857   1.00
C6       0.83773    0.17308    0.53073   1.00
C6       0.81749    0.17201    0.47154   1.00
C6       0.87046    0.17044    0.50759   1.00
C6       0.85759    0.16975    0.46995   1.00
H3       0.83752    0.17435    0.56197   1.00
H3       0.79817    0.17226    0.44700   1.00
H3       0.90037    0.16913    0.51713   1.00
H3       0.87545    0.16785    0.44425   1.00
N1       0.66362    0.28692    0.49143   1.00
C6       0.65866    0.29789    0.52846   1.00
C6       0.65508    0.31784    0.46927   1.00
C6       0.64730    0.33641    0.53005   1.00
C6       0.64503    0.34910    0.49241   1.00
H3       0.66331    0.27914    0.55300   1.00
H3       0.65636    0.31793    0.43803   1.00
H3       0.64136    0.35337    0.55575   1.00
H3       0.63691    0.37792    0.48287   1.00
C4       0.75012    0.47915    0.24985   1.00
C4       0.74988    0.52085    0.25015   1.00
C3a      0.74942    0.45746    0.21427   1.00
C3       0.78430    0.54232    0.24318   1.00
C3       0.75120    0.45768    0.28495   1.00
C3a      0.71508    0.54254    0.25759   1.00
C2       0.75007    0.39488    0.25005   1.00
C2       0.75006    0.60512    0.25005   1.00
C3       0.74932    0.41595    0.21495   1.00
C3       0.78432    0.58363    0.24303   1.00
C3       0.75105    0.41637    0.28501   1.00
C3       0.71572    0.58405    0.25735   1.00
C5       0.74813    0.47772    0.17506   1.00
H1       0.81129    0.52691    0.23743   1.00
H1       0.74858    0.39979    0.18784   1.00
H1       0.81131    0.59901    0.23733   1.00
H1       0.75167    0.40099    0.31258   1.00
H1       0.68916    0.60021    0.26282   1.00
C5       0.67661    0.52228    0.26530   1.00
H1       0.75176    0.47309    0.31254   1.00
H2       0.65209    0.54256    0.25920   1.00
H2       0.67284    0.49731    0.24499   1.00
H2       0.73659    0.45744    0.15257   1.00
H2       0.72750    0.50269    0.17603   1.00
N1       0.67434    0.50857    0.30568   1.00
C6       0.67308    0.53073    0.33773   1.00
C6       0.67201    0.47154    0.31749   1.00
C6       0.67044    0.50759    0.37046   1.00
C6       0.66975    0.46995    0.35759   1.00
H3       0.67435    0.56197    0.33752   1.00
H3       0.67226    0.44700    0.29817   1.00
H3       0.66913    0.51713    0.40037   1.00
H3       0.66785    0.44425    0.37545   1.00
N1       0.78692    0.49143    0.16362   1.00
C6       0.79789    0.52846    0.15866   1.00
C6       0.81784    0.46927    0.15508   1.00
C6       0.83641    0.53005    0.14730   1.00
C6       0.84910    0.49241    0.14503   1.00
H3       0.77914    0.55300    0.16331   1.00
H3       0.81793    0.43803    0.15636   1.00
H3       0.85337    0.55575    0.14136   1.00
H3       0.87792    0.48287    0.13691   1.00
C4       0.52085    0.24985    0.24988   1.00
C4       0.47915    0.25015    0.25012   1.00
C3a      0.54254    0.21427    0.25058   1.00
C3       0.45768    0.24318    0.21570   1.00
C3       0.54232    0.28495    0.24880   1.00
C3a      0.45746    0.25759    0.28492   1.00
C2       0.60512    0.25005    0.24993   1.00
C2       0.39488    0.25005    0.24994   1.00
C3       0.58405    0.21495    0.25068   1.00
C3       0.41637    0.24303    0.21568   1.00
C3       0.58363    0.28501    0.24895   1.00
C3       0.41595    0.25735    0.28428   1.00
C5       0.52228    0.17506    0.25187   1.00
H1       0.47309    0.23743    0.18871   1.00
H1       0.60021    0.18784    0.25142   1.00
H1       0.40099    0.23733    0.18869   1.00
H1       0.59901    0.31258    0.24833   1.00
H1       0.39979    0.26282    0.31084   1.00
C5       0.47772    0.26530    0.32339   1.00
H1       0.52691    0.31254    0.24824   1.00
H2       0.45744    0.25920    0.34791   1.00
H2       0.50269    0.24499    0.32716   1.00
H2       0.54256    0.15257    0.26341   1.00
H2       0.49731    0.17603    0.27250   1.00
N1       0.49143    0.30568    0.32566   1.00
C6       0.46927    0.33773    0.32692   1.00
C6       0.52846    0.31749    0.32799   1.00
C6       0.49241    0.37046    0.32956   1.00
C6       0.53005    0.35759    0.33025   1.00
H3       0.43803    0.33752    0.32565   1.00
H3       0.55300    0.29817    0.32774   1.00
H3       0.48287    0.40037    0.33087   1.00
H3       0.55575    0.37545    0.33215   1.00
N1       0.50857    0.16362    0.21308   1.00
C6       0.47154    0.15866    0.20211   1.00
C6       0.53073    0.15508    0.18216   1.00
C6       0.46995    0.14730    0.16359   1.00
C6       0.50759    0.14503    0.15090   1.00
H3       0.44700    0.16331    0.22086   1.00
H3       0.56197    0.15636    0.18207   1.00
H3       0.44425    0.14136    0.14663   1.00
H3       0.51713    0.13691    0.12208   1.00
C4       0.97915    0.24985    0.25012   1.00
C4       1.02085    0.25015    0.24988   1.00
C3a      0.95746    0.21427    0.24942   1.00
C3       1.04232    0.24318    0.28430   1.00
C3       0.95768    0.28495    0.25120   1.00
C3a      1.04254    0.25759    0.21508   1.00
C2       0.89488    0.25005    0.25007   1.00
C2       1.10512    0.25005    0.25006   1.00
C3       0.91595    0.21495    0.24932   1.00
C3       1.08363    0.24303    0.28432   1.00
C3       0.91637    0.28501    0.25105   1.00
C3       1.08405    0.25735    0.21572   1.00
C5       0.97772    0.17506    0.24813   1.00
H1       1.02691    0.23743    0.31129   1.00
H1       0.89979    0.18784    0.24858   1.00
H1       1.09901    0.23733    0.31131   1.00
H1       0.90099    0.31258    0.25167   1.00
H1       1.10021    0.26282    0.18916   1.00
C5       1.02228    0.26530    0.17661   1.00
H1       0.97309    0.31254    0.25176   1.00
H2       1.04256    0.25920    0.15209   1.00
H2       0.99731    0.24499    0.17284   1.00
H2       0.95744    0.15257    0.23659   1.00
H2       1.00269    0.17603    0.22750   1.00
N1       1.00857    0.30568    0.17434   1.00
C6       1.03073    0.33773    0.17308   1.00
C6       0.97154    0.31749    0.17201   1.00
C6       1.00759    0.37046    0.17044   1.00
C6       0.96995    0.35759    0.16975   1.00
H3       1.06197    0.33752    0.17435   1.00
H3       0.94700    0.29817    0.17226   1.00
H3       1.01713    0.40037    0.16913   1.00
H3       0.94425    0.37545    0.16785   1.00
N1       0.99143    0.16362    0.28692   1.00
C6       1.02846    0.15866    0.29789   1.00
C6       0.96927    0.15508    0.31784   1.00
C6       1.03005    0.14730    0.33641   1.00
C6       0.99241    0.14503    0.34910   1.00
H3       1.05300    0.16331    0.27914   1.00
H3       0.93803    0.15636    0.31793   1.00
H3       1.05575    0.14136    0.35337   1.00
H3       0.98287    0.13691    0.37792   1.00
C4       0.74988    0.02085    0.24985   1.00
C4       0.75012    -0.02085   0.25015   1.00
C3a      0.75058    0.04254    0.21427   1.00
C3       0.71570    -0.04232   0.24318   1.00
C3       0.74880    0.04232    0.28495   1.00
C3a      0.78492    -0.04254   0.25759   1.00
C2       0.74993    0.10512    0.25005   1.00
C2       0.74994    -0.10512   0.25005   1.00
C3       0.75068    0.08405    0.21495   1.00
C3       0.71568    -0.08363   0.24303   1.00
C3       0.74895    0.08363    0.28501   1.00
C3       0.78428    -0.08405   0.25735   1.00
C5       0.75187    0.02228    0.17506   1.00
H1       0.68871    -0.02691   0.23743   1.00
H1       0.75142    0.10021    0.18784   1.00
H1       0.68869    -0.09901   0.23733   1.00
H1       0.74833    0.09901    0.31258   1.00
H1       0.81084    -0.10021   0.26282   1.00
C5       0.82339    -0.02228   0.26530   1.00
H1       0.74824    0.02691    0.31254   1.00
H2       0.84791    -0.04256   0.25920   1.00
H2       0.82716    0.00269    0.24499   1.00
H2       0.76341    0.04256    0.15257   1.00
H2       0.77250    -0.00269   0.17603   1.00
N1       0.82566    -0.00857   0.30568   1.00
C6       0.82692    -0.03073   0.33773   1.00
C6       0.82799    0.02846    0.31749   1.00
C6       0.82956    -0.00759   0.37046   1.00
C6       0.83025    0.03005    0.35759   1.00
H3       0.82565    -0.06197   0.33752   1.00
H3       0.82774    0.05300    0.29817   1.00
H3       0.83087    -0.01713   0.40037   1.00
H3       0.83215    0.05575    0.37545   1.00
N1       0.71308    0.00857    0.16362   1.00
C6       0.70211    -0.02846   0.15866   1.00
C6       0.68216    0.03073    0.15508   1.00
C6       0.66359    -0.03005   0.14730   1.00
C6       0.65090    0.00759    0.14503   1.00
H3       0.72086    -0.05300   0.16331   1.00
H3       0.68207    0.06197    0.15636   1.00
H3       0.64663    -0.05575   0.14136   1.00
H3       0.62208    0.01713    0.13691   1.00
C4       0.74985    0.24988    0.02085   1.00
C4       0.75015    0.25012    -0.02085   1.00
C3a      0.71427    0.25058    0.04254   1.00
C3       0.74318    0.21570    -0.04232   1.00
C3       0.78495    0.24880    0.04232   1.00
C3a      0.75759    0.28492    -0.04254   1.00
C2       0.75005    0.24993    0.10512   1.00
C2       0.75005    0.24994    -0.10512   1.00
C3       0.71495    0.25068    0.08405   1.00
C3       0.74303    0.21568    -0.08363   1.00
C3       0.78501    0.24895    0.08363   1.00
C3       0.75735    0.28428    -0.08405   1.00
C5       0.67506    0.25187    0.02228   1.00
H1       0.73743    0.18871    -0.02691   1.00
H1       0.68784    0.25142    0.10021   1.00
H1       0.73733    0.18869    -0.09901   1.00
H1       0.81258    0.24833    0.09901   1.00
H1       0.76282    0.31084    -0.10021   1.00
C5       0.76530    0.32339    -0.02228   1.00
H1       0.81254    0.24824    0.02691   1.00
H2       0.75920    0.34791    -0.04256   1.00
H2       0.74499    0.32716    0.00269   1.00
H2       0.65257    0.26341    0.04256   1.00
H2       0.67603    0.27250    -0.00269   1.00
N1       0.80568    0.32566    -0.00857   1.00
C6       0.83773    0.32692    -0.03073   1.00
C6       0.81749    0.32799    0.02846   1.00
C6       0.87046    0.32956    -0.00759   1.00
C6       0.85759    0.33025    0.03005   1.00
H3       0.83752    0.32565    -0.06197   1.00
H3       0.79817    0.32774    0.05300   1.00
H3       0.90037    0.33087    -0.01713   1.00
H3       0.87545    0.33215    0.05575   1.00
N1       0.66362    0.21308    0.00857   1.00
C6       0.65866    0.20211    -0.02846   1.00
C6       0.65508    0.18216    0.03073   1.00
C6       0.64730    0.16359    -0.03005   1.00
C6       0.64503    0.15090    0.00759   1.00
H3       0.66331    0.22086    -0.05300   1.00
H3       0.65636    0.18207    0.06197   1.00
H3       0.64136    0.14663    -0.05575   1.00
H3       0.63691    0.12208    0.01713   1.00
