data_IRMOF10_SG202_Ligand11_label_o.

_audit_creation_method             'generated by an auxiliary program of Tobunporous'

_symmetry_space_group_name_H-M     'P 1'
_symmetry_Int_Tables_number        1
_symmetry_cell_setting             triclinic

_cell_length_a                    34.2800
_cell_length_b                    34.2800
_cell_length_c                    34.2800
_cell_angle_alpha                 90.0000
_cell_angle_beta                  90.0000
_cell_angle_gamma                 90.0000

loop_
_atom_site_label
_atom_site_fract_x
_atom_site_fract_y
_atom_site_fract_z
_atom_site_occupancy
O1       0.75000    0.75000    0.75000   1.00
Zn1      0.71720    0.78280    0.78280   1.00
Zn1      0.78280    0.71720    0.78280   1.00
Zn1      0.78280    0.78280    0.71720   1.00
Zn1      0.71720    0.71720    0.71720   1.00
O2       0.72650    0.77350    0.83820   1.00
O2       0.72650    0.83820    0.77350   1.00
O2       0.66180    0.77350    0.77350   1.00
O2       0.77350    0.72650    0.83820   1.00
O2       0.83820    0.72650    0.77350   1.00
O2       0.77350    0.66180    0.77350   1.00
O2       0.77350    0.83820    0.72650   1.00
O2       0.83820    0.77350    0.72650   1.00
O2       0.77350    0.77350    0.66180   1.00
O2       0.66180    0.72650    0.72650   1.00
O2       0.72650    0.66180    0.72650   1.00
O2       0.72650    0.72650    0.66180   1.00
C1       0.75000    0.75000    0.85520   1.00
C1       0.75000    0.85520    0.75000   1.00
C1       0.64480    0.75000    0.75000   1.00
C1       0.85520    0.75000    0.75000   1.00
C1       0.75000    0.64480    0.75000   1.00
C1       0.75000    0.75000    0.64480   1.00
O1       0.25000    0.25000    0.75000   1.00
Zn1      0.21720    0.28280    0.78280   1.00
Zn1      0.28280    0.21720    0.78280   1.00
Zn1      0.28280    0.28280    0.71720   1.00
Zn1      0.21720    0.21720    0.71720   1.00
O2       0.22650    0.27350    0.83820   1.00
O2       0.22650    0.33820    0.77350   1.00
O2       0.16180    0.27350    0.77350   1.00
O2       0.27350    0.22650    0.83820   1.00
O2       0.33820    0.22650    0.77350   1.00
O2       0.27350    0.16180    0.77350   1.00
O2       0.27350    0.33820    0.72650   1.00
O2       0.33820    0.27350    0.72650   1.00
O2       0.27350    0.27350    0.66180   1.00
O2       0.16180    0.22650    0.72650   1.00
O2       0.22650    0.16180    0.72650   1.00
O2       0.22650    0.22650    0.66180   1.00
C1       0.25000    0.25000    0.85520   1.00
C1       0.25000    0.35520    0.75000   1.00
C1       0.14480    0.25000    0.75000   1.00
C1       0.35520    0.25000    0.75000   1.00
C1       0.25000    0.14480    0.75000   1.00
C1       0.25000    0.25000    0.64480   1.00
O1       0.25000    0.75000    0.25000   1.00
Zn1      0.21720    0.78280    0.28280   1.00
Zn1      0.28280    0.71720    0.28280   1.00
Zn1      0.28280    0.78280    0.21720   1.00
Zn1      0.21720    0.71720    0.21720   1.00
O2       0.22650    0.77350    0.33820   1.00
O2       0.22650    0.83820    0.27350   1.00
O2       0.16180    0.77350    0.27350   1.00
O2       0.27350    0.72650    0.33820   1.00
O2       0.33820    0.72650    0.27350   1.00
O2       0.27350    0.66180    0.27350   1.00
O2       0.27350    0.83820    0.22650   1.00
O2       0.33820    0.77350    0.22650   1.00
O2       0.27350    0.77350    0.16180   1.00
O2       0.16180    0.72650    0.22650   1.00
O2       0.22650    0.66180    0.22650   1.00
O2       0.22650    0.72650    0.16180   1.00
C1       0.25000    0.75000    0.35520   1.00
C1       0.25000    0.85520    0.25000   1.00
C1       0.14480    0.75000    0.25000   1.00
C1       0.35520    0.75000    0.25000   1.00
C1       0.25000    0.64480    0.25000   1.00
C1       0.25000    0.75000    0.14480   1.00
O1       0.75000    0.25000    0.25000   1.00
Zn1      0.71720    0.28280    0.28280   1.00
Zn1      0.78280    0.21720    0.28280   1.00
Zn1      0.78280    0.28280    0.21720   1.00
Zn1      0.71720    0.21720    0.21720   1.00
O2       0.72650    0.27350    0.33820   1.00
O2       0.72650    0.33820    0.27350   1.00
O2       0.66180    0.27350    0.27350   1.00
O2       0.77350    0.22650    0.33820   1.00
O2       0.83820    0.22650    0.27350   1.00
O2       0.77350    0.16180    0.27350   1.00
O2       0.77350    0.33820    0.22650   1.00
O2       0.83820    0.27350    0.22650   1.00
O2       0.77350    0.27350    0.16180   1.00
O2       0.66180    0.22650    0.22650   1.00
O2       0.72650    0.16180    0.22650   1.00
O2       0.72650    0.22650    0.16180   1.00
C1       0.75000    0.25000    0.35520   1.00
C1       0.75000    0.35520    0.25000   1.00
C1       0.64480    0.25000    0.25000   1.00
C1       0.85520    0.25000    0.25000   1.00
C1       0.75000    0.14480    0.25000   1.00
C1       0.75000    0.25000    0.14480   1.00
O1       0.25000    0.25000    0.25000   1.00
Zn1      0.28280    0.21720    0.21720   1.00
Zn1      0.21720    0.28280    0.21720   1.00
Zn1      0.21720    0.21720    0.28280   1.00
Zn1      0.28280    0.28280    0.28280   1.00
O2       0.27350    0.22650    0.16180   1.00
O2       0.27350    0.16180    0.22650   1.00
O2       0.33820    0.22650    0.22650   1.00
O2       0.22650    0.27350    0.16180   1.00
O2       0.16180    0.27350    0.22650   1.00
O2       0.22650    0.33820    0.22650   1.00
O2       0.22650    0.16180    0.27350   1.00
O2       0.16180    0.22650    0.27350   1.00
O2       0.22650    0.22650    0.33820   1.00
O2       0.33820    0.27350    0.27350   1.00
O2       0.27350    0.33820    0.27350   1.00
O2       0.27350    0.27350    0.33820   1.00
C1       0.25000    0.25000    0.14480   1.00
C1       0.25000    0.14480    0.25000   1.00
C1       0.35520    0.25000    0.25000   1.00
C1       0.14480    0.25000    0.25000   1.00
C1       0.25000    0.35520    0.25000   1.00
C1       0.25000    0.25000    0.35520   1.00
O1       0.75000    0.75000    0.25000   1.00
Zn1      0.78280    0.71720    0.21720   1.00
Zn1      0.71720    0.78280    0.21720   1.00
Zn1      0.71720    0.71720    0.28280   1.00
Zn1      0.78280    0.78280    0.28280   1.00
O2       0.77350    0.72650    0.16180   1.00
O2       0.77350    0.66180    0.22650   1.00
O2       0.83820    0.72650    0.22650   1.00
O2       0.72650    0.77350    0.16180   1.00
O2       0.66180    0.77350    0.22650   1.00
O2       0.72650    0.83820    0.22650   1.00
O2       0.72650    0.66180    0.27350   1.00
O2       0.66180    0.72650    0.27350   1.00
O2       0.72650    0.72650    0.33820   1.00
O2       0.83820    0.77350    0.27350   1.00
O2       0.77350    0.83820    0.27350   1.00
O2       0.77350    0.77350    0.33820   1.00
C1       0.75000    0.75000    0.14480   1.00
C1       0.75000    0.64480    0.25000   1.00
C1       0.85520    0.75000    0.25000   1.00
C1       0.64480    0.75000    0.25000   1.00
C1       0.75000    0.85520    0.25000   1.00
C1       0.75000    0.75000    0.35520   1.00
O1       0.75000    0.25000    0.75000   1.00
Zn1      0.78280    0.21720    0.71720   1.00
Zn1      0.71720    0.28280    0.71720   1.00
Zn1      0.71720    0.21720    0.78280   1.00
Zn1      0.78280    0.28280    0.78280   1.00
O2       0.77350    0.22650    0.66180   1.00
O2       0.77350    0.16180    0.72650   1.00
O2       0.83820    0.22650    0.72650   1.00
O2       0.72650    0.27350    0.66180   1.00
O2       0.66180    0.27350    0.72650   1.00
O2       0.72650    0.33820    0.72650   1.00
O2       0.72650    0.16180    0.77350   1.00
O2       0.66180    0.22650    0.77350   1.00
O2       0.72650    0.22650    0.83820   1.00
O2       0.83820    0.27350    0.77350   1.00
O2       0.77350    0.33820    0.77350   1.00
O2       0.77350    0.27350    0.83820   1.00
C1       0.75000    0.25000    0.64480   1.00
C1       0.75000    0.14480    0.75000   1.00
C1       0.85520    0.25000    0.75000   1.00
C1       0.64480    0.25000    0.75000   1.00
C1       0.75000    0.35520    0.75000   1.00
C1       0.75000    0.25000    0.85520   1.00
O1       0.25000    0.75000    0.75000   1.00
Zn1      0.28280    0.71720    0.71720   1.00
Zn1      0.21720    0.78280    0.71720   1.00
Zn1      0.21720    0.71720    0.78280   1.00
Zn1      0.28280    0.78280    0.78280   1.00
O2       0.27350    0.72650    0.66180   1.00
O2       0.27350    0.66180    0.72650   1.00
O2       0.33820    0.72650    0.72650   1.00
O2       0.22650    0.77350    0.66180   1.00
O2       0.16180    0.77350    0.72650   1.00
O2       0.22650    0.83820    0.72650   1.00
O2       0.22650    0.66180    0.77350   1.00
O2       0.16180    0.72650    0.77350   1.00
O2       0.22650    0.72650    0.83820   1.00
O2       0.33820    0.77350    0.77350   1.00
O2       0.27350    0.83820    0.77350   1.00
O2       0.27350    0.77350    0.83820   1.00
C1       0.25000    0.75000    0.64480   1.00
C1       0.25000    0.64480    0.75000   1.00
C1       0.35520    0.75000    0.75000   1.00
C1       0.14480    0.75000    0.75000   1.00
C1       0.25000    0.85520    0.75000   1.00
C1       0.25000    0.75000    0.85520   1.00
C4       0.74988    0.74985    0.97915   1.00
C4       0.75012    0.75015    1.02085   1.00
C3a      0.75058    0.71427    0.95746   1.00
C3       0.71570    0.74318    1.04232   1.00
C3       0.74880    0.78495    0.95768   1.00
C3a      0.78492    0.75759    1.04254   1.00
C2       0.74993    0.75005    0.89488   1.00
C2       0.74994    0.75005    1.10512   1.00
C3       0.75068    0.71495    0.91595   1.00
C3       0.71568    0.74303    1.08363   1.00
C3       0.74895    0.78501    0.91637   1.00
C3       0.78428    0.75735    1.08405   1.00
C5       0.75187    0.67506    0.97772   1.00
H1       0.68871    0.73743    1.02691   1.00
H1       0.75142    0.68784    0.89979   1.00
H1       0.68869    0.73733    1.09901   1.00
H1       0.74833    0.81258    0.90099   1.00
H1       0.81084    0.76282    1.10021   1.00
C5       0.82339    0.76530    1.02228   1.00
H1       0.74824    0.81254    0.97309   1.00
H2       0.84791    0.75920    1.04256   1.00
H2       0.82716    0.74499    0.99731   1.00
H2       0.76341    0.65257    0.95744   1.00
H2       0.77250    0.67603    1.00269   1.00
N1       0.82566    0.80568    1.00857   1.00
C6       0.82692    0.83773    1.03073   1.00
C6       0.82799    0.81749    0.97154   1.00
C6       0.82956    0.87046    1.00759   1.00
C6       0.83025    0.85759    0.96995   1.00
H3       0.82565    0.83752    1.06197   1.00
H3       0.82774    0.79817    0.94700   1.00
H3       0.83087    0.90037    1.01713   1.00
H3       0.83215    0.87545    0.94425   1.00
N1       0.71308    0.66362    0.99143   1.00
C6       0.70211    0.65866    1.02846   1.00
C6       0.68216    0.65508    0.96927   1.00
C6       0.66359    0.64730    1.03005   1.00
C6       0.65090    0.64503    0.99241   1.00
H3       0.72086    0.66331    1.05300   1.00
H3       0.68207    0.65636    0.93803   1.00
H3       0.64663    0.64136    1.05575   1.00
H3       0.62208    0.63691    0.98287   1.00
C4       0.74985    0.97915    0.74988   1.00
C4       0.75015    1.02085    0.75012   1.00
C3a      0.71427    0.95746    0.75058   1.00
C3       0.74318    1.04232    0.71570   1.00
C3       0.78495    0.95768    0.74880   1.00
C3a      0.75759    1.04254    0.78492   1.00
C2       0.75005    0.89488    0.74993   1.00
C2       0.75005    1.10512    0.74994   1.00
C3       0.71495    0.91595    0.75068   1.00
C3       0.74303    1.08363    0.71568   1.00
C3       0.78501    0.91637    0.74895   1.00
C3       0.75735    1.08405    0.78428   1.00
C5       0.67506    0.97772    0.75187   1.00
H1       0.73743    1.02691    0.68871   1.00
H1       0.68784    0.89979    0.75142   1.00
H1       0.73733    1.09901    0.68869   1.00
H1       0.81258    0.90099    0.74833   1.00
H1       0.76282    1.10021    0.81084   1.00
C5       0.76530    1.02228    0.82339   1.00
H1       0.81254    0.97309    0.74824   1.00
H2       0.75920    1.04256    0.84791   1.00
H2       0.74499    0.99731    0.82716   1.00
H2       0.65257    0.95744    0.76341   1.00
H2       0.67603    1.00269    0.77250   1.00
N1       0.80568    1.00857    0.82566   1.00
C6       0.83773    1.03073    0.82692   1.00
C6       0.81749    0.97154    0.82799   1.00
C6       0.87046    1.00759    0.82956   1.00
C6       0.85759    0.96995    0.83025   1.00
H3       0.83752    1.06197    0.82565   1.00
H3       0.79817    0.94700    0.82774   1.00
H3       0.90037    1.01713    0.83087   1.00
H3       0.87545    0.94425    0.83215   1.00
N1       0.66362    0.99143    0.71308   1.00
C6       0.65866    1.02846    0.70211   1.00
C6       0.65508    0.96927    0.68216   1.00
C6       0.64730    1.03005    0.66359   1.00
C6       0.64503    0.99241    0.65090   1.00
H3       0.66331    1.05300    0.72086   1.00
H3       0.65636    0.93803    0.68207   1.00
H3       0.64136    1.05575    0.64663   1.00
H3       0.63691    0.98287    0.62208   1.00
C4       0.52085    0.74988    0.75015   1.00
C4       0.47915    0.75012    0.74985   1.00
C3a      0.54254    0.75058    0.78573   1.00
C3       0.45768    0.71570    0.75682   1.00
C3       0.54232    0.74880    0.71505   1.00
C3a      0.45746    0.78492    0.74241   1.00
C2       0.60512    0.74993    0.74995   1.00
C2       0.39488    0.74994    0.74995   1.00
C3       0.58405    0.75068    0.78505   1.00
C3       0.41637    0.71568    0.75697   1.00
C3       0.58363    0.74895    0.71499   1.00
C3       0.41595    0.78428    0.74265   1.00
C5       0.52228    0.75187    0.82494   1.00
H1       0.47309    0.68871    0.76257   1.00
H1       0.60021    0.75142    0.81216   1.00
H1       0.40099    0.68869    0.76267   1.00
H1       0.59901    0.74833    0.68742   1.00
H1       0.39979    0.81084    0.73718   1.00
C5       0.47772    0.82339    0.73470   1.00
H1       0.52691    0.74824    0.68746   1.00
H2       0.45744    0.84791    0.74080   1.00
H2       0.50269    0.82716    0.75501   1.00
H2       0.54256    0.76341    0.84743   1.00
H2       0.49731    0.77250    0.82397   1.00
N1       0.49143    0.82566    0.69432   1.00
C6       0.46927    0.82692    0.66227   1.00
C6       0.52846    0.82799    0.68251   1.00
C6       0.49241    0.82956    0.62954   1.00
C6       0.53005    0.83025    0.64241   1.00
H3       0.43803    0.82565    0.66248   1.00
H3       0.55300    0.82774    0.70183   1.00
H3       0.48287    0.83087    0.59963   1.00
H3       0.55575    0.83215    0.62455   1.00
N1       0.50857    0.71308    0.83638   1.00
C6       0.47154    0.70211    0.84134   1.00
C6       0.53073    0.68216    0.84492   1.00
C6       0.46995    0.66359    0.85270   1.00
C6       0.50759    0.65090    0.85497   1.00
H3       0.44700    0.72086    0.83669   1.00
H3       0.56197    0.68207    0.84364   1.00
H3       0.44425    0.64663    0.85864   1.00
H3       0.51713    0.62208    0.86309   1.00
C4       0.97915    0.74988    0.74985   1.00
C4       1.02085    0.75012    0.75015   1.00
C3a      0.95746    0.75058    0.71427   1.00
C3       1.04232    0.71570    0.74318   1.00
C3       0.95768    0.74880    0.78495   1.00
C3a      1.04254    0.78492    0.75759   1.00
C2       0.89488    0.74993    0.75005   1.00
C2       1.10512    0.74994    0.75005   1.00
C3       0.91595    0.75068    0.71495   1.00
C3       1.08363    0.71568    0.74303   1.00
C3       0.91637    0.74895    0.78501   1.00
C3       1.08405    0.78428    0.75735   1.00
C5       0.97772    0.75187    0.67506   1.00
H1       1.02691    0.68871    0.73743   1.00
H1       0.89979    0.75142    0.68784   1.00
H1       1.09901    0.68869    0.73733   1.00
H1       0.90099    0.74833    0.81258   1.00
H1       1.10021    0.81084    0.76282   1.00
C5       1.02228    0.82339    0.76530   1.00
H1       0.97309    0.74824    0.81254   1.00
H2       1.04256    0.84791    0.75920   1.00
H2       0.99731    0.82716    0.74499   1.00
H2       0.95744    0.76341    0.65257   1.00
H2       1.00269    0.77250    0.67603   1.00
N1       1.00857    0.82566    0.80568   1.00
C6       1.03073    0.82692    0.83773   1.00
C6       0.97154    0.82799    0.81749   1.00
C6       1.00759    0.82956    0.87046   1.00
C6       0.96995    0.83025    0.85759   1.00
H3       1.06197    0.82565    0.83752   1.00
H3       0.94700    0.82774    0.79817   1.00
H3       1.01713    0.83087    0.90037   1.00
H3       0.94425    0.83215    0.87545   1.00
N1       0.99143    0.71308    0.66362   1.00
C6       1.02846    0.70211    0.65866   1.00
C6       0.96927    0.68216    0.65508   1.00
C6       1.03005    0.66359    0.64730   1.00
C6       0.99241    0.65090    0.64503   1.00
H3       1.05300    0.72086    0.66331   1.00
H3       0.93803    0.68207    0.65636   1.00
H3       1.05575    0.64663    0.64136   1.00
H3       0.98287    0.62208    0.63691   1.00
C4       0.75015    0.52085    0.74988   1.00
C4       0.74985    0.47915    0.75012   1.00
C3a      0.78573    0.54254    0.75058   1.00
C3       0.75682    0.45768    0.71570   1.00
C3       0.71505    0.54232    0.74880   1.00
C3a      0.74241    0.45746    0.78492   1.00
C2       0.74995    0.60512    0.74993   1.00
C2       0.74995    0.39488    0.74994   1.00
C3       0.78505    0.58405    0.75068   1.00
C3       0.75697    0.41637    0.71568   1.00
C3       0.71499    0.58363    0.74895   1.00
C3       0.74265    0.41595    0.78428   1.00
C5       0.82494    0.52228    0.75187   1.00
H1       0.76257    0.47309    0.68871   1.00
H1       0.81216    0.60021    0.75142   1.00
H1       0.76267    0.40099    0.68869   1.00
H1       0.68742    0.59901    0.74833   1.00
H1       0.73718    0.39979    0.81084   1.00
C5       0.73470    0.47772    0.82339   1.00
H1       0.68746    0.52691    0.74824   1.00
H2       0.74080    0.45744    0.84791   1.00
H2       0.75501    0.50269    0.82716   1.00
H2       0.84743    0.54256    0.76341   1.00
H2       0.82397    0.49731    0.77250   1.00
N1       0.69432    0.49143    0.82566   1.00
C6       0.66227    0.46927    0.82692   1.00
C6       0.68251    0.52846    0.82799   1.00
C6       0.62954    0.49241    0.82956   1.00
C6       0.64241    0.53005    0.83025   1.00
H3       0.66248    0.43803    0.82565   1.00
H3       0.70183    0.55300    0.82774   1.00
H3       0.59963    0.48287    0.83087   1.00
H3       0.62455    0.55575    0.83215   1.00
N1       0.83638    0.50857    0.71308   1.00
C6       0.84134    0.47154    0.70211   1.00
C6       0.84492    0.53073    0.68216   1.00
C6       0.85270    0.46995    0.66359   1.00
C6       0.85497    0.50759    0.65090   1.00
H3       0.83669    0.44700    0.72086   1.00
H3       0.84364    0.56197    0.68207   1.00
H3       0.85864    0.44425    0.64663   1.00
H3       0.86309    0.51713    0.62208   1.00
C4       0.74988    0.75015    0.52085   1.00
C4       0.75012    0.74985    0.47915   1.00
C3a      0.75058    0.78573    0.54254   1.00
C3       0.71570    0.75682    0.45768   1.00
C3       0.74880    0.71505    0.54232   1.00
C3a      0.78492    0.74241    0.45746   1.00
C2       0.74993    0.74995    0.60512   1.00
C2       0.74994    0.74995    0.39488   1.00
C3       0.75068    0.78505    0.58405   1.00
C3       0.71568    0.75697    0.41637   1.00
C3       0.74895    0.71499    0.58363   1.00
C3       0.78428    0.74265    0.41595   1.00
C5       0.75187    0.82494    0.52228   1.00
H1       0.68871    0.76257    0.47309   1.00
H1       0.75142    0.81216    0.60021   1.00
H1       0.68869    0.76267    0.40099   1.00
H1       0.74833    0.68742    0.59901   1.00
H1       0.81084    0.73718    0.39979   1.00
C5       0.82339    0.73470    0.47772   1.00
H1       0.74824    0.68746    0.52691   1.00
H2       0.84791    0.74080    0.45744   1.00
H2       0.82716    0.75501    0.50269   1.00
H2       0.76341    0.84743    0.54256   1.00
H2       0.77250    0.82397    0.49731   1.00
N1       0.82566    0.69432    0.49143   1.00
C6       0.82692    0.66227    0.46927   1.00
C6       0.82799    0.68251    0.52846   1.00
C6       0.82956    0.62954    0.49241   1.00
C6       0.83025    0.64241    0.53005   1.00
H3       0.82565    0.66248    0.43803   1.00
H3       0.82774    0.70183    0.55300   1.00
H3       0.83087    0.59963    0.48287   1.00
H3       0.83215    0.62455    0.55575   1.00
N1       0.71308    0.83638    0.50857   1.00
C6       0.70211    0.84134    0.47154   1.00
C6       0.68216    0.84492    0.53073   1.00
C6       0.66359    0.85270    0.46995   1.00
C6       0.65090    0.85497    0.50759   1.00
H3       0.72086    0.83669    0.44700   1.00
H3       0.68207    0.84364    0.56197   1.00
H3       0.64663    0.85864    0.44425   1.00
H3       0.62208    0.86309    0.51713   1.00
C4       0.24988    0.24985    0.97915   1.00
C4       0.25012    0.25015    1.02085   1.00
C3a      0.25058    0.21427    0.95746   1.00
C3       0.21570    0.24318    1.04232   1.00
C3       0.24880    0.28495    0.95768   1.00
C3a      0.28492    0.25759    1.04254   1.00
C2       0.24993    0.25005    0.89488   1.00
C2       0.24994    0.25005    1.10512   1.00
C3       0.25068    0.21495    0.91595   1.00
C3       0.21568    0.24303    1.08363   1.00
C3       0.24895    0.28501    0.91637   1.00
C3       0.28428    0.25735    1.08405   1.00
C5       0.25187    0.17506    0.97772   1.00
H1       0.18871    0.23743    1.02691   1.00
H1       0.25142    0.18784    0.89979   1.00
H1       0.18869    0.23733    1.09901   1.00
H1       0.24833    0.31258    0.90099   1.00
H1       0.31084    0.26282    1.10021   1.00
C5       0.32339    0.26530    1.02228   1.00
H1       0.24824    0.31254    0.97309   1.00
H2       0.34791    0.25920    1.04256   1.00
H2       0.32716    0.24499    0.99731   1.00
H2       0.26341    0.15257    0.95744   1.00
H2       0.27250    0.17603    1.00269   1.00
N1       0.32566    0.30568    1.00857   1.00
C6       0.32692    0.33773    1.03073   1.00
C6       0.32799    0.31749    0.97154   1.00
C6       0.32956    0.37046    1.00759   1.00
C6       0.33025    0.35759    0.96995   1.00
H3       0.32565    0.33752    1.06197   1.00
H3       0.32774    0.29817    0.94700   1.00
H3       0.33087    0.40037    1.01713   1.00
H3       0.33215    0.37545    0.94425   1.00
N1       0.21308    0.16362    0.99143   1.00
C6       0.20211    0.15866    1.02846   1.00
C6       0.18216    0.15508    0.96927   1.00
C6       0.16359    0.14730    1.03005   1.00
C6       0.15090    0.14503    0.99241   1.00
H3       0.22086    0.16331    1.05300   1.00
H3       0.18207    0.15636    0.93803   1.00
H3       0.14663    0.14136    1.05575   1.00
H3       0.12208    0.13691    0.98287   1.00
C4       0.24985    0.47915    0.74988   1.00
C4       0.25015    0.52085    0.75012   1.00
C3a      0.21427    0.45746    0.75058   1.00
C3       0.24318    0.54232    0.71570   1.00
C3       0.28495    0.45768    0.74880   1.00
C3a      0.25759    0.54254    0.78492   1.00
C2       0.25005    0.39488    0.74993   1.00
C2       0.25005    0.60512    0.74994   1.00
C3       0.21495    0.41595    0.75068   1.00
C3       0.24303    0.58363    0.71568   1.00
C3       0.28501    0.41637    0.74895   1.00
C3       0.25735    0.58405    0.78428   1.00
C5       0.17506    0.47772    0.75187   1.00
H1       0.23743    0.52691    0.68871   1.00
H1       0.18784    0.39979    0.75142   1.00
H1       0.23733    0.59901    0.68869   1.00
H1       0.31258    0.40099    0.74833   1.00
H1       0.26282    0.60021    0.81084   1.00
C5       0.26530    0.52228    0.82339   1.00
H1       0.31254    0.47309    0.74824   1.00
H2       0.25920    0.54256    0.84791   1.00
H2       0.24499    0.49731    0.82716   1.00
H2       0.15257    0.45744    0.76341   1.00
H2       0.17603    0.50269    0.77250   1.00
N1       0.30568    0.50857    0.82566   1.00
C6       0.33773    0.53073    0.82692   1.00
C6       0.31749    0.47154    0.82799   1.00
C6       0.37046    0.50759    0.82956   1.00
C6       0.35759    0.46995    0.83025   1.00
H3       0.33752    0.56197    0.82565   1.00
H3       0.29817    0.44700    0.82774   1.00
H3       0.40037    0.51713    0.83087   1.00
H3       0.37545    0.44425    0.83215   1.00
N1       0.16362    0.49143    0.71308   1.00
C6       0.15866    0.52846    0.70211   1.00
C6       0.15508    0.46927    0.68216   1.00
C6       0.14730    0.53005    0.66359   1.00
C6       0.14503    0.49241    0.65090   1.00
H3       0.16331    0.55300    0.72086   1.00
H3       0.15636    0.43803    0.68207   1.00
H3       0.14136    0.55575    0.64663   1.00
H3       0.13691    0.48287    0.62208   1.00
C4       0.02085    0.24988    0.75015   1.00
C4       -0.02085   0.25012    0.74985   1.00
C3a      0.04254    0.25058    0.78573   1.00
C3       -0.04232   0.21570    0.75682   1.00
C3       0.04232    0.24880    0.71505   1.00
C3a      -0.04254   0.28492    0.74241   1.00
C2       0.10512    0.24993    0.74995   1.00
C2       -0.10512   0.24994    0.74995   1.00
C3       0.08405    0.25068    0.78505   1.00
C3       -0.08363   0.21568    0.75697   1.00
C3       0.08363    0.24895    0.71499   1.00
C3       -0.08405   0.28428    0.74265   1.00
C5       0.02228    0.25187    0.82494   1.00
H1       -0.02691   0.18871    0.76257   1.00
H1       0.10021    0.25142    0.81216   1.00
H1       -0.09901   0.18869    0.76267   1.00
H1       0.09901    0.24833    0.68742   1.00
H1       -0.10021   0.31084    0.73718   1.00
C5       -0.02228   0.32339    0.73470   1.00
H1       0.02691    0.24824    0.68746   1.00
H2       -0.04256   0.34791    0.74080   1.00
H2       0.00269    0.32716    0.75501   1.00
H2       0.04256    0.26341    0.84743   1.00
H2       -0.00269   0.27250    0.82397   1.00
N1       -0.00857   0.32566    0.69432   1.00
C6       -0.03073   0.32692    0.66227   1.00
C6       0.02846    0.32799    0.68251   1.00
C6       -0.00759   0.32956    0.62954   1.00
C6       0.03005    0.33025    0.64241   1.00
H3       -0.06197   0.32565    0.66248   1.00
H3       0.05300    0.32774    0.70183   1.00
H3       -0.01713   0.33087    0.59963   1.00
H3       0.05575    0.33215    0.62455   1.00
N1       0.00857    0.21308    0.83638   1.00
C6       -0.02846   0.20211    0.84134   1.00
C6       0.03073    0.18216    0.84492   1.00
C6       -0.03005   0.16359    0.85270   1.00
C6       0.00759    0.15090    0.85497   1.00
H3       -0.05300   0.22086    0.83669   1.00
H3       0.06197    0.18207    0.84364   1.00
H3       -0.05575   0.14663    0.85864   1.00
H3       0.01713    0.12208    0.86309   1.00
C4       0.47915    0.24988    0.74985   1.00
C4       0.52085    0.25012    0.75015   1.00
C3a      0.45746    0.25058    0.71427   1.00
C3       0.54232    0.21570    0.74318   1.00
C3       0.45768    0.24880    0.78495   1.00
C3a      0.54254    0.28492    0.75759   1.00
C2       0.39488    0.24993    0.75005   1.00
C2       0.60512    0.24994    0.75005   1.00
C3       0.41595    0.25068    0.71495   1.00
C3       0.58363    0.21568    0.74303   1.00
C3       0.41637    0.24895    0.78501   1.00
C3       0.58405    0.28428    0.75735   1.00
C5       0.47772    0.25187    0.67506   1.00
H1       0.52691    0.18871    0.73743   1.00
H1       0.39979    0.25142    0.68784   1.00
H1       0.59901    0.18869    0.73733   1.00
H1       0.40099    0.24833    0.81258   1.00
H1       0.60021    0.31084    0.76282   1.00
C5       0.52228    0.32339    0.76530   1.00
H1       0.47309    0.24824    0.81254   1.00
H2       0.54256    0.34791    0.75920   1.00
H2       0.49731    0.32716    0.74499   1.00
H2       0.45744    0.26341    0.65257   1.00
H2       0.50269    0.27250    0.67603   1.00
N1       0.50857    0.32566    0.80568   1.00
C6       0.53073    0.32692    0.83773   1.00
C6       0.47154    0.32799    0.81749   1.00
C6       0.50759    0.32956    0.87046   1.00
C6       0.46995    0.33025    0.85759   1.00
H3       0.56197    0.32565    0.83752   1.00
H3       0.44700    0.32774    0.79817   1.00
H3       0.51713    0.33087    0.90037   1.00
H3       0.44425    0.33215    0.87545   1.00
N1       0.49143    0.21308    0.66362   1.00
C6       0.52846    0.20211    0.65866   1.00
C6       0.46927    0.18216    0.65508   1.00
C6       0.53005    0.16359    0.64730   1.00
C6       0.49241    0.15090    0.64503   1.00
H3       0.55300    0.22086    0.66331   1.00
H3       0.43803    0.18207    0.65636   1.00
H3       0.55575    0.14663    0.64136   1.00
H3       0.48287    0.12208    0.63691   1.00
C4       0.25015    0.02085    0.74988   1.00
C4       0.24985    -0.02085   0.75012   1.00
C3a      0.28573    0.04254    0.75058   1.00
C3       0.25682    -0.04232   0.71570   1.00
C3       0.21505    0.04232    0.74880   1.00
C3a      0.24241    -0.04254   0.78492   1.00
C2       0.24995    0.10512    0.74993   1.00
C2       0.24995    -0.10512   0.74994   1.00
C3       0.28505    0.08405    0.75068   1.00
C3       0.25697    -0.08363   0.71568   1.00
C3       0.21499    0.08363    0.74895   1.00
C3       0.24265    -0.08405   0.78428   1.00
C5       0.32494    0.02228    0.75187   1.00
H1       0.26257    -0.02691   0.68871   1.00
H1       0.31216    0.10021    0.75142   1.00
H1       0.26267    -0.09901   0.68869   1.00
H1       0.18742    0.09901    0.74833   1.00
H1       0.23718    -0.10021   0.81084   1.00
C5       0.23470    -0.02228   0.82339   1.00
H1       0.18746    0.02691    0.74824   1.00
H2       0.24080    -0.04256   0.84791   1.00
H2       0.25501    0.00269    0.82716   1.00
H2       0.34743    0.04256    0.76341   1.00
H2       0.32397    -0.00269   0.77250   1.00
N1       0.19432    -0.00857   0.82566   1.00
C6       0.16227    -0.03073   0.82692   1.00
C6       0.18251    0.02846    0.82799   1.00
C6       0.12954    -0.00759   0.82956   1.00
C6       0.14241    0.03005    0.83025   1.00
H3       0.16248    -0.06197   0.82565   1.00
H3       0.20183    0.05300    0.82774   1.00
H3       0.09963    -0.01713   0.83087   1.00
H3       0.12455    0.05575    0.83215   1.00
N1       0.33638    0.00857    0.71308   1.00
C6       0.34134    -0.02846   0.70211   1.00
C6       0.34492    0.03073    0.68216   1.00
C6       0.35270    -0.03005   0.66359   1.00
C6       0.35497    0.00759    0.65090   1.00
H3       0.33669    -0.05300   0.72086   1.00
H3       0.34364    0.06197    0.68207   1.00
H3       0.35864    -0.05575   0.64663   1.00
H3       0.36309    0.01713    0.62208   1.00
C4       0.24988    0.25015    0.52085   1.00
C4       0.25012    0.24985    0.47915   1.00
C3a      0.25058    0.28573    0.54254   1.00
C3       0.21570    0.25682    0.45768   1.00
C3       0.24880    0.21505    0.54232   1.00
C3a      0.28492    0.24241    0.45746   1.00
C2       0.24993    0.24995    0.60512   1.00
C2       0.24994    0.24995    0.39488   1.00
C3       0.25068    0.28505    0.58405   1.00
C3       0.21568    0.25697    0.41637   1.00
C3       0.24895    0.21499    0.58363   1.00
C3       0.28428    0.24265    0.41595   1.00
C5       0.25187    0.32494    0.52228   1.00
H1       0.18871    0.26257    0.47309   1.00
H1       0.25142    0.31216    0.60021   1.00
H1       0.18869    0.26267    0.40099   1.00
H1       0.24833    0.18742    0.59901   1.00
H1       0.31084    0.23718    0.39979   1.00
C5       0.32339    0.23470    0.47772   1.00
H1       0.24824    0.18746    0.52691   1.00
H2       0.34791    0.24080    0.45744   1.00
H2       0.32716    0.25501    0.50269   1.00
H2       0.26341    0.34743    0.54256   1.00
H2       0.27250    0.32397    0.49731   1.00
N1       0.32566    0.19432    0.49143   1.00
C6       0.32692    0.16227    0.46927   1.00
C6       0.32799    0.18251    0.52846   1.00
C6       0.32956    0.12954    0.49241   1.00
C6       0.33025    0.14241    0.53005   1.00
H3       0.32565    0.16248    0.43803   1.00
H3       0.32774    0.20183    0.55300   1.00
H3       0.33087    0.09963    0.48287   1.00
H3       0.33215    0.12455    0.55575   1.00
N1       0.21308    0.33638    0.50857   1.00
C6       0.20211    0.34134    0.47154   1.00
C6       0.18216    0.34492    0.53073   1.00
C6       0.16359    0.35270    0.46995   1.00
C6       0.15090    0.35497    0.50759   1.00
H3       0.22086    0.33669    0.44700   1.00
H3       0.18207    0.34364    0.56197   1.00
H3       0.14663    0.35864    0.44425   1.00
H3       0.12208    0.36309    0.51713   1.00
C4       0.24988    0.74985    0.47915   1.00
C4       0.25012    0.75015    0.52085   1.00
C3a      0.25058    0.71427    0.45746   1.00
C3       0.21570    0.74318    0.54232   1.00
C3       0.24880    0.78495    0.45768   1.00
C3a      0.28492    0.75759    0.54254   1.00
C2       0.24993    0.75005    0.39488   1.00
C2       0.24994    0.75005    0.60512   1.00
C3       0.25068    0.71495    0.41595   1.00
C3       0.21568    0.74303    0.58363   1.00
C3       0.24895    0.78501    0.41637   1.00
C3       0.28428    0.75735    0.58405   1.00
C5       0.25187    0.67506    0.47772   1.00
H1       0.18871    0.73743    0.52691   1.00
H1       0.25142    0.68784    0.39979   1.00
H1       0.18869    0.73733    0.59901   1.00
H1       0.24833    0.81258    0.40099   1.00
H1       0.31084    0.76282    0.60021   1.00
C5       0.32339    0.76530    0.52228   1.00
H1       0.24824    0.81254    0.47309   1.00
H2       0.34791    0.75920    0.54256   1.00
H2       0.32716    0.74499    0.49731   1.00
H2       0.26341    0.65257    0.45744   1.00
H2       0.27250    0.67603    0.50269   1.00
N1       0.32566    0.80568    0.50857   1.00
C6       0.32692    0.83773    0.53073   1.00
C6       0.32799    0.81749    0.47154   1.00
C6       0.32956    0.87046    0.50759   1.00
C6       0.33025    0.85759    0.46995   1.00
H3       0.32565    0.83752    0.56197   1.00
H3       0.32774    0.79817    0.44700   1.00
H3       0.33087    0.90037    0.51713   1.00
H3       0.33215    0.87545    0.44425   1.00
N1       0.21308    0.66362    0.49143   1.00
C6       0.20211    0.65866    0.52846   1.00
C6       0.18216    0.65508    0.46927   1.00
C6       0.16359    0.64730    0.53005   1.00
C6       0.15090    0.64503    0.49241   1.00
H3       0.22086    0.66331    0.55300   1.00
H3       0.18207    0.65636    0.43803   1.00
H3       0.14663    0.64136    0.55575   1.00
H3       0.12208    0.63691    0.48287   1.00
C4       0.24985    0.97915    0.24988   1.00
C4       0.25015    1.02085    0.25012   1.00
C3a      0.21427    0.95746    0.25058   1.00
C3       0.24318    1.04232    0.21570   1.00
C3       0.28495    0.95768    0.24880   1.00
C3a      0.25759    1.04254    0.28492   1.00
C2       0.25005    0.89488    0.24993   1.00
C2       0.25005    1.10512    0.24994   1.00
C3       0.21495    0.91595    0.25068   1.00
C3       0.24303    1.08363    0.21568   1.00
C3       0.28501    0.91637    0.24895   1.00
C3       0.25735    1.08405    0.28428   1.00
C5       0.17506    0.97772    0.25187   1.00
H1       0.23743    1.02691    0.18871   1.00
H1       0.18784    0.89979    0.25142   1.00
H1       0.23733    1.09901    0.18869   1.00
H1       0.31258    0.90099    0.24833   1.00
H1       0.26282    1.10021    0.31084   1.00
C5       0.26530    1.02228    0.32339   1.00
H1       0.31254    0.97309    0.24824   1.00
H2       0.25920    1.04256    0.34791   1.00
H2       0.24499    0.99731    0.32716   1.00
H2       0.15257    0.95744    0.26341   1.00
H2       0.17603    1.00269    0.27250   1.00
N1       0.30568    1.00857    0.32566   1.00
C6       0.33773    1.03073    0.32692   1.00
C6       0.31749    0.97154    0.32799   1.00
C6       0.37046    1.00759    0.32956   1.00
C6       0.35759    0.96995    0.33025   1.00
H3       0.33752    1.06197    0.32565   1.00
H3       0.29817    0.94700    0.32774   1.00
H3       0.40037    1.01713    0.33087   1.00
H3       0.37545    0.94425    0.33215   1.00
N1       0.16362    0.99143    0.21308   1.00
C6       0.15866    1.02846    0.20211   1.00
C6       0.15508    0.96927    0.18216   1.00
C6       0.14730    1.03005    0.16359   1.00
C6       0.14503    0.99241    0.15090   1.00
H3       0.16331    1.05300    0.22086   1.00
H3       0.15636    0.93803    0.18207   1.00
H3       0.14136    1.05575    0.14663   1.00
H3       0.13691    0.98287    0.12208   1.00
C4       0.02085    0.74988    0.25015   1.00
C4       -0.02085   0.75012    0.24985   1.00
C3a      0.04254    0.75058    0.28573   1.00
C3       -0.04232   0.71570    0.25682   1.00
C3       0.04232    0.74880    0.21505   1.00
C3a      -0.04254   0.78492    0.24241   1.00
C2       0.10512    0.74993    0.24995   1.00
C2       -0.10512   0.74994    0.24995   1.00
C3       0.08405    0.75068    0.28505   1.00
C3       -0.08363   0.71568    0.25697   1.00
C3       0.08363    0.74895    0.21499   1.00
C3       -0.08405   0.78428    0.24265   1.00
C5       0.02228    0.75187    0.32494   1.00
H1       -0.02691   0.68871    0.26257   1.00
H1       0.10021    0.75142    0.31216   1.00
H1       -0.09901   0.68869    0.26267   1.00
H1       0.09901    0.74833    0.18742   1.00
H1       -0.10021   0.81084    0.23718   1.00
C5       -0.02228   0.82339    0.23470   1.00
H1       0.02691    0.74824    0.18746   1.00
H2       -0.04256   0.84791    0.24080   1.00
H2       0.00269    0.82716    0.25501   1.00
H2       0.04256    0.76341    0.34743   1.00
H2       -0.00269   0.77250    0.32397   1.00
N1       -0.00857   0.82566    0.19432   1.00
C6       -0.03073   0.82692    0.16227   1.00
C6       0.02846    0.82799    0.18251   1.00
C6       -0.00759   0.82956    0.12954   1.00
C6       0.03005    0.83025    0.14241   1.00
H3       -0.06197   0.82565    0.16248   1.00
H3       0.05300    0.82774    0.20183   1.00
H3       -0.01713   0.83087    0.09963   1.00
H3       0.05575    0.83215    0.12455   1.00
N1       0.00857    0.71308    0.33638   1.00
C6       -0.02846   0.70211    0.34134   1.00
C6       0.03073    0.68216    0.34492   1.00
C6       -0.03005   0.66359    0.35270   1.00
C6       0.00759    0.65090    0.35497   1.00
H3       -0.05300   0.72086    0.33669   1.00
H3       0.06197    0.68207    0.34364   1.00
H3       -0.05575   0.64663    0.35864   1.00
H3       0.01713    0.62208    0.36309   1.00
C4       0.47915    0.74988    0.24985   1.00
C4       0.52085    0.75012    0.25015   1.00
C3a      0.45746    0.75058    0.21427   1.00
C3       0.54232    0.71570    0.24318   1.00
C3       0.45768    0.74880    0.28495   1.00
C3a      0.54254    0.78492    0.25759   1.00
C2       0.39488    0.74993    0.25005   1.00
C2       0.60512    0.74994    0.25005   1.00
C3       0.41595    0.75068    0.21495   1.00
C3       0.58363    0.71568    0.24303   1.00
C3       0.41637    0.74895    0.28501   1.00
C3       0.58405    0.78428    0.25735   1.00
C5       0.47772    0.75187    0.17506   1.00
H1       0.52691    0.68871    0.23743   1.00
H1       0.39979    0.75142    0.18784   1.00
H1       0.59901    0.68869    0.23733   1.00
H1       0.40099    0.74833    0.31258   1.00
H1       0.60021    0.81084    0.26282   1.00
C5       0.52228    0.82339    0.26530   1.00
H1       0.47309    0.74824    0.31254   1.00
H2       0.54256    0.84791    0.25920   1.00
H2       0.49731    0.82716    0.24499   1.00
H2       0.45744    0.76341    0.15257   1.00
H2       0.50269    0.77250    0.17603   1.00
N1       0.50857    0.82566    0.30568   1.00
C6       0.53073    0.82692    0.33773   1.00
C6       0.47154    0.82799    0.31749   1.00
C6       0.50759    0.82956    0.37046   1.00
C6       0.46995    0.83025    0.35759   1.00
H3       0.56197    0.82565    0.33752   1.00
H3       0.44700    0.82774    0.29817   1.00
H3       0.51713    0.83087    0.40037   1.00
H3       0.44425    0.83215    0.37545   1.00
N1       0.49143    0.71308    0.16362   1.00
C6       0.52846    0.70211    0.15866   1.00
C6       0.46927    0.68216    0.15508   1.00
C6       0.53005    0.66359    0.14730   1.00
C6       0.49241    0.65090    0.14503   1.00
H3       0.55300    0.72086    0.16331   1.00
H3       0.43803    0.68207    0.15636   1.00
H3       0.55575    0.64663    0.14136   1.00
H3       0.48287    0.62208    0.13691   1.00
C4       0.25015    0.52085    0.24988   1.00
C4       0.24985    0.47915    0.25012   1.00
C3a      0.28573    0.54254    0.25058   1.00
C3       0.25682    0.45768    0.21570   1.00
C3       0.21505    0.54232    0.24880   1.00
C3a      0.24241    0.45746    0.28492   1.00
C2       0.24995    0.60512    0.24993   1.00
C2       0.24995    0.39488    0.24994   1.00
C3       0.28505    0.58405    0.25068   1.00
C3       0.25697    0.41637    0.21568   1.00
C3       0.21499    0.58363    0.24895   1.00
C3       0.24265    0.41595    0.28428   1.00
C5       0.32494    0.52228    0.25187   1.00
H1       0.26257    0.47309    0.18871   1.00
H1       0.31216    0.60021    0.25142   1.00
H1       0.26267    0.40099    0.18869   1.00
H1       0.18742    0.59901    0.24833   1.00
H1       0.23718    0.39979    0.31084   1.00
C5       0.23470    0.47772    0.32339   1.00
H1       0.18746    0.52691    0.24824   1.00
H2       0.24080    0.45744    0.34791   1.00
H2       0.25501    0.50269    0.32716   1.00
H2       0.34743    0.54256    0.26341   1.00
H2       0.32397    0.49731    0.27250   1.00
N1       0.19432    0.49143    0.32566   1.00
C6       0.16227    0.46927    0.32692   1.00
C6       0.18251    0.52846    0.32799   1.00
C6       0.12954    0.49241    0.32956   1.00
C6       0.14241    0.53005    0.33025   1.00
H3       0.16248    0.43803    0.32565   1.00
H3       0.20183    0.55300    0.32774   1.00
H3       0.09963    0.48287    0.33087   1.00
H3       0.12455    0.55575    0.33215   1.00
N1       0.33638    0.50857    0.21308   1.00
C6       0.34134    0.47154    0.20211   1.00
C6       0.34492    0.53073    0.18216   1.00
C6       0.35270    0.46995    0.16359   1.00
C6       0.35497    0.50759    0.15090   1.00
H3       0.33669    0.44700    0.22086   1.00
H3       0.34364    0.56197    0.18207   1.00
H3       0.35864    0.44425    0.14663   1.00
H3       0.36309    0.51713    0.12208   1.00
C4       0.24988    0.75015    0.02085   1.00
C4       0.25012    0.74985    -0.02085   1.00
C3a      0.25058    0.78573    0.04254   1.00
C3       0.21570    0.75682    -0.04232   1.00
C3       0.24880    0.71505    0.04232   1.00
C3a      0.28492    0.74241    -0.04254   1.00
C2       0.24993    0.74995    0.10512   1.00
C2       0.24994    0.74995    -0.10512   1.00
C3       0.25068    0.78505    0.08405   1.00
C3       0.21568    0.75697    -0.08363   1.00
C3       0.24895    0.71499    0.08363   1.00
C3       0.28428    0.74265    -0.08405   1.00
C5       0.25187    0.82494    0.02228   1.00
H1       0.18871    0.76257    -0.02691   1.00
H1       0.25142    0.81216    0.10021   1.00
H1       0.18869    0.76267    -0.09901   1.00
H1       0.24833    0.68742    0.09901   1.00
H1       0.31084    0.73718    -0.10021   1.00
C5       0.32339    0.73470    -0.02228   1.00
H1       0.24824    0.68746    0.02691   1.00
H2       0.34791    0.74080    -0.04256   1.00
H2       0.32716    0.75501    0.00269   1.00
H2       0.26341    0.84743    0.04256   1.00
H2       0.27250    0.82397    -0.00269   1.00
N1       0.32566    0.69432    -0.00857   1.00
C6       0.32692    0.66227    -0.03073   1.00
C6       0.32799    0.68251    0.02846   1.00
C6       0.32956    0.62954    -0.00759   1.00
C6       0.33025    0.64241    0.03005   1.00
H3       0.32565    0.66248    -0.06197   1.00
H3       0.32774    0.70183    0.05300   1.00
H3       0.33087    0.59963    -0.01713   1.00
H3       0.33215    0.62455    0.05575   1.00
N1       0.21308    0.83638    0.00857   1.00
C6       0.20211    0.84134    -0.02846   1.00
C6       0.18216    0.84492    0.03073   1.00
C6       0.16359    0.85270    -0.03005   1.00
C6       0.15090    0.85497    0.00759   1.00
H3       0.22086    0.83669    -0.05300   1.00
H3       0.18207    0.84364    0.06197   1.00
H3       0.14663    0.85864    -0.05575   1.00
H3       0.12208    0.86309    0.01713   1.00
C4       0.74988    0.24985    0.47915   1.00
C4       0.75012    0.25015    0.52085   1.00
C3a      0.75058    0.21427    0.45746   1.00
C3       0.71570    0.24318    0.54232   1.00
C3       0.74880    0.28495    0.45768   1.00
C3a      0.78492    0.25759    0.54254   1.00
C2       0.74993    0.25005    0.39488   1.00
C2       0.74994    0.25005    0.60512   1.00
C3       0.75068    0.21495    0.41595   1.00
C3       0.71568    0.24303    0.58363   1.00
C3       0.74895    0.28501    0.41637   1.00
C3       0.78428    0.25735    0.58405   1.00
C5       0.75187    0.17506    0.47772   1.00
H1       0.68871    0.23743    0.52691   1.00
H1       0.75142    0.18784    0.39979   1.00
H1       0.68869    0.23733    0.59901   1.00
H1       0.74833    0.31258    0.40099   1.00
H1       0.81084    0.26282    0.60021   1.00
C5       0.82339    0.26530    0.52228   1.00
H1       0.74824    0.31254    0.47309   1.00
H2       0.84791    0.25920    0.54256   1.00
H2       0.82716    0.24499    0.49731   1.00
H2       0.76341    0.15257    0.45744   1.00
H2       0.77250    0.17603    0.50269   1.00
N1       0.82566    0.30568    0.50857   1.00
C6       0.82692    0.33773    0.53073   1.00
C6       0.82799    0.31749    0.47154   1.00
C6       0.82956    0.37046    0.50759   1.00
C6       0.83025    0.35759    0.46995   1.00
H3       0.82565    0.33752    0.56197   1.00
H3       0.82774    0.29817    0.44700   1.00
H3       0.83087    0.40037    0.51713   1.00
H3       0.83215    0.37545    0.44425   1.00
N1       0.71308    0.16362    0.49143   1.00
C6       0.70211    0.15866    0.52846   1.00
C6       0.68216    0.15508    0.46927   1.00
C6       0.66359    0.14730    0.53005   1.00
C6       0.65090    0.14503    0.49241   1.00
H3       0.72086    0.16331    0.55300   1.00
H3       0.68207    0.15636    0.43803   1.00
H3       0.64663    0.14136    0.55575   1.00
H3       0.62208    0.13691    0.48287   1.00
C4       0.74985    0.47915    0.24988   1.00
C4       0.75015    0.52085    0.25012   1.00
C3a      0.71427    0.45746    0.25058   1.00
C3       0.74318    0.54232    0.21570   1.00
C3       0.78495    0.45768    0.24880   1.00
C3a      0.75759    0.54254    0.28492   1.00
C2       0.75005    0.39488    0.24993   1.00
C2       0.75005    0.60512    0.24994   1.00
C3       0.71495    0.41595    0.25068   1.00
C3       0.74303    0.58363    0.21568   1.00
C3       0.78501    0.41637    0.24895   1.00
C3       0.75735    0.58405    0.28428   1.00
C5       0.67506    0.47772    0.25187   1.00
H1       0.73743    0.52691    0.18871   1.00
H1       0.68784    0.39979    0.25142   1.00
H1       0.73733    0.59901    0.18869   1.00
H1       0.81258    0.40099    0.24833   1.00
H1       0.76282    0.60021    0.31084   1.00
C5       0.76530    0.52228    0.32339   1.00
H1       0.81254    0.47309    0.24824   1.00
H2       0.75920    0.54256    0.34791   1.00
H2       0.74499    0.49731    0.32716   1.00
H2       0.65257    0.45744    0.26341   1.00
H2       0.67603    0.50269    0.27250   1.00
N1       0.80568    0.50857    0.32566   1.00
C6       0.83773    0.53073    0.32692   1.00
C6       0.81749    0.47154    0.32799   1.00
C6       0.87046    0.50759    0.32956   1.00
C6       0.85759    0.46995    0.33025   1.00
H3       0.83752    0.56197    0.32565   1.00
H3       0.79817    0.44700    0.32774   1.00
H3       0.90037    0.51713    0.33087   1.00
H3       0.87545    0.44425    0.33215   1.00
N1       0.66362    0.49143    0.21308   1.00
C6       0.65866    0.52846    0.20211   1.00
C6       0.65508    0.46927    0.18216   1.00
C6       0.64730    0.53005    0.16359   1.00
C6       0.64503    0.49241    0.15090   1.00
H3       0.66331    0.55300    0.22086   1.00
H3       0.65636    0.43803    0.18207   1.00
H3       0.64136    0.55575    0.14663   1.00
H3       0.63691    0.48287    0.12208   1.00
C4       0.52085    0.24988    0.25015   1.00
C4       0.47915    0.25012    0.24985   1.00
C3a      0.54254    0.25058    0.28573   1.00
C3       0.45768    0.21570    0.25682   1.00
C3       0.54232    0.24880    0.21505   1.00
C3a      0.45746    0.28492    0.24241   1.00
C2       0.60512    0.24993    0.24995   1.00
C2       0.39488    0.24994    0.24995   1.00
C3       0.58405    0.25068    0.28505   1.00
C3       0.41637    0.21568    0.25697   1.00
C3       0.58363    0.24895    0.21499   1.00
C3       0.41595    0.28428    0.24265   1.00
C5       0.52228    0.25187    0.32494   1.00
H1       0.47309    0.18871    0.26257   1.00
H1       0.60021    0.25142    0.31216   1.00
H1       0.40099    0.18869    0.26267   1.00
H1       0.59901    0.24833    0.18742   1.00
H1       0.39979    0.31084    0.23718   1.00
C5       0.47772    0.32339    0.23470   1.00
H1       0.52691    0.24824    0.18746   1.00
H2       0.45744    0.34791    0.24080   1.00
H2       0.50269    0.32716    0.25501   1.00
H2       0.54256    0.26341    0.34743   1.00
H2       0.49731    0.27250    0.32397   1.00
N1       0.49143    0.32566    0.19432   1.00
C6       0.46927    0.32692    0.16227   1.00
C6       0.52846    0.32799    0.18251   1.00
C6       0.49241    0.32956    0.12954   1.00
C6       0.53005    0.33025    0.14241   1.00
H3       0.43803    0.32565    0.16248   1.00
H3       0.55300    0.32774    0.20183   1.00
H3       0.48287    0.33087    0.09963   1.00
H3       0.55575    0.33215    0.12455   1.00
N1       0.50857    0.21308    0.33638   1.00
C6       0.47154    0.20211    0.34134   1.00
C6       0.53073    0.18216    0.34492   1.00
C6       0.46995    0.16359    0.35270   1.00
C6       0.50759    0.15090    0.35497   1.00
H3       0.44700    0.22086    0.33669   1.00
H3       0.56197    0.18207    0.34364   1.00
H3       0.44425    0.14663    0.35864   1.00
H3       0.51713    0.12208    0.36309   1.00
C4       0.97915    0.24988    0.24985   1.00
C4       1.02085    0.25012    0.25015   1.00
C3a      0.95746    0.25058    0.21427   1.00
C3       1.04232    0.21570    0.24318   1.00
C3       0.95768    0.24880    0.28495   1.00
C3a      1.04254    0.28492    0.25759   1.00
C2       0.89488    0.24993    0.25005   1.00
C2       1.10512    0.24994    0.25005   1.00
C3       0.91595    0.25068    0.21495   1.00
C3       1.08363    0.21568    0.24303   1.00
C3       0.91637    0.24895    0.28501   1.00
C3       1.08405    0.28428    0.25735   1.00
C5       0.97772    0.25187    0.17506   1.00
H1       1.02691    0.18871    0.23743   1.00
H1       0.89979    0.25142    0.18784   1.00
H1       1.09901    0.18869    0.23733   1.00
H1       0.90099    0.24833    0.31258   1.00
H1       1.10021    0.31084    0.26282   1.00
C5       1.02228    0.32339    0.26530   1.00
H1       0.97309    0.24824    0.31254   1.00
H2       1.04256    0.34791    0.25920   1.00
H2       0.99731    0.32716    0.24499   1.00
H2       0.95744    0.26341    0.15257   1.00
H2       1.00269    0.27250    0.17603   1.00
N1       1.00857    0.32566    0.30568   1.00
C6       1.03073    0.32692    0.33773   1.00
C6       0.97154    0.32799    0.31749   1.00
C6       1.00759    0.32956    0.37046   1.00
C6       0.96995    0.33025    0.35759   1.00
H3       1.06197    0.32565    0.33752   1.00
H3       0.94700    0.32774    0.29817   1.00
H3       1.01713    0.33087    0.40037   1.00
H3       0.94425    0.33215    0.37545   1.00
N1       0.99143    0.21308    0.16362   1.00
C6       1.02846    0.20211    0.15866   1.00
C6       0.96927    0.18216    0.15508   1.00
C6       1.03005    0.16359    0.14730   1.00
C6       0.99241    0.15090    0.14503   1.00
H3       1.05300    0.22086    0.16331   1.00
H3       0.93803    0.18207    0.15636   1.00
H3       1.05575    0.14663    0.14136   1.00
H3       0.98287    0.12208    0.13691   1.00
C4       0.75015    0.02085    0.24988   1.00
C4       0.74985    -0.02085   0.25012   1.00
C3a      0.78573    0.04254    0.25058   1.00
C3       0.75682    -0.04232   0.21570   1.00
C3       0.71505    0.04232    0.24880   1.00
C3a      0.74241    -0.04254   0.28492   1.00
C2       0.74995    0.10512    0.24993   1.00
C2       0.74995    -0.10512   0.24994   1.00
C3       0.78505    0.08405    0.25068   1.00
C3       0.75697    -0.08363   0.21568   1.00
C3       0.71499    0.08363    0.24895   1.00
C3       0.74265    -0.08405   0.28428   1.00
C5       0.82494    0.02228    0.25187   1.00
H1       0.76257    -0.02691   0.18871   1.00
H1       0.81216    0.10021    0.25142   1.00
H1       0.76267    -0.09901   0.18869   1.00
H1       0.68742    0.09901    0.24833   1.00
H1       0.73718    -0.10021   0.31084   1.00
C5       0.73470    -0.02228   0.32339   1.00
H1       0.68746    0.02691    0.24824   1.00
H2       0.74080    -0.04256   0.34791   1.00
H2       0.75501    0.00269    0.32716   1.00
H2       0.84743    0.04256    0.26341   1.00
H2       0.82397    -0.00269   0.27250   1.00
N1       0.69432    -0.00857   0.32566   1.00
C6       0.66227    -0.03073   0.32692   1.00
C6       0.68251    0.02846    0.32799   1.00
C6       0.62954    -0.00759   0.32956   1.00
C6       0.64241    0.03005    0.33025   1.00
H3       0.66248    -0.06197   0.32565   1.00
H3       0.70183    0.05300    0.32774   1.00
H3       0.59963    -0.01713   0.33087   1.00
H3       0.62455    0.05575    0.33215   1.00
N1       0.83638    0.00857    0.21308   1.00
C6       0.84134    -0.02846   0.20211   1.00
C6       0.84492    0.03073    0.18216   1.00
C6       0.85270    -0.03005   0.16359   1.00
C6       0.85497    0.00759    0.15090   1.00
H3       0.83669    -0.05300   0.22086   1.00
H3       0.84364    0.06197    0.18207   1.00
H3       0.85864    -0.05575   0.14663   1.00
H3       0.86309    0.01713    0.12208   1.00
C4       0.74988    0.25015    0.02085   1.00
C4       0.75012    0.24985    -0.02085   1.00
C3a      0.75058    0.28573    0.04254   1.00
C3       0.71570    0.25682    -0.04232   1.00
C3       0.74880    0.21505    0.04232   1.00
C3a      0.78492    0.24241    -0.04254   1.00
C2       0.74993    0.24995    0.10512   1.00
C2       0.74994    0.24995    -0.10512   1.00
C3       0.75068    0.28505    0.08405   1.00
C3       0.71568    0.25697    -0.08363   1.00
C3       0.74895    0.21499    0.08363   1.00
C3       0.78428    0.24265    -0.08405   1.00
C5       0.75187    0.32494    0.02228   1.00
H1       0.68871    0.26257    -0.02691   1.00
H1       0.75142    0.31216    0.10021   1.00
H1       0.68869    0.26267    -0.09901   1.00
H1       0.74833    0.18742    0.09901   1.00
H1       0.81084    0.23718    -0.10021   1.00
C5       0.82339    0.23470    -0.02228   1.00
H1       0.74824    0.18746    0.02691   1.00
H2       0.84791    0.24080    -0.04256   1.00
H2       0.82716    0.25501    0.00269   1.00
H2       0.76341    0.34743    0.04256   1.00
H2       0.77250    0.32397    -0.00269   1.00
N1       0.82566    0.19432    -0.00857   1.00
C6       0.82692    0.16227    -0.03073   1.00
C6       0.82799    0.18251    0.02846   1.00
C6       0.82956    0.12954    -0.00759   1.00
C6       0.83025    0.14241    0.03005   1.00
H3       0.82565    0.16248    -0.06197   1.00
H3       0.82774    0.20183    0.05300   1.00
H3       0.83087    0.09963    -0.01713   1.00
H3       0.83215    0.12455    0.05575   1.00
N1       0.71308    0.33638    0.00857   1.00
C6       0.70211    0.34134    -0.02846   1.00
C6       0.68216    0.34492    0.03073   1.00
C6       0.66359    0.35270    -0.03005   1.00
C6       0.65090    0.35497    0.00759   1.00
H3       0.72086    0.33669    -0.05300   1.00
H3       0.68207    0.34364    0.06197   1.00
H3       0.64663    0.35864    -0.05575   1.00
H3       0.62208    0.36309    0.01713   1.00
