data_IRMOF10_SG202_Ligand8_label_f.

_audit_creation_method             'generated by an auxiliary program of Tobunporous'

_symmetry_space_group_name_H-M     'P 1'
_symmetry_Int_Tables_number        1
_symmetry_cell_setting             triclinic

_cell_length_a                    34.2800
_cell_length_b                    34.2800
_cell_length_c                    34.2800
_cell_angle_alpha                 90.0000
_cell_angle_beta                  90.0000
_cell_angle_gamma                 90.0000

loop_
_atom_site_label
_atom_site_fract_x
_atom_site_fract_y
_atom_site_fract_z
_atom_site_occupancy
O1       0.75000    0.75000    0.75000   1.00
Zn1      0.71720    0.78280    0.78280   1.00
Zn1      0.78280    0.71720    0.78280   1.00
Zn1      0.78280    0.78280    0.71720   1.00
Zn1      0.71720    0.71720    0.71720   1.00
O2       0.72650    0.77350    0.83820   1.00
O2       0.72650    0.83820    0.77350   1.00
O2       0.66180    0.77350    0.77350   1.00
O2       0.77350    0.72650    0.83820   1.00
O2       0.83820    0.72650    0.77350   1.00
O2       0.77350    0.66180    0.77350   1.00
O2       0.77350    0.83820    0.72650   1.00
O2       0.83820    0.77350    0.72650   1.00
O2       0.77350    0.77350    0.66180   1.00
O2       0.66180    0.72650    0.72650   1.00
O2       0.72650    0.66180    0.72650   1.00
O2       0.72650    0.72650    0.66180   1.00
C1       0.75000    0.75000    0.85520   1.00
C1       0.75000    0.85520    0.75000   1.00
C1       0.64480    0.75000    0.75000   1.00
C1       0.85520    0.75000    0.75000   1.00
C1       0.75000    0.64480    0.75000   1.00
C1       0.75000    0.75000    0.64480   1.00
O1       0.25000    0.25000    0.75000   1.00
Zn1      0.21720    0.28280    0.78280   1.00
Zn1      0.28280    0.21720    0.78280   1.00
Zn1      0.28280    0.28280    0.71720   1.00
Zn1      0.21720    0.21720    0.71720   1.00
O2       0.22650    0.27350    0.83820   1.00
O2       0.22650    0.33820    0.77350   1.00
O2       0.16180    0.27350    0.77350   1.00
O2       0.27350    0.22650    0.83820   1.00
O2       0.33820    0.22650    0.77350   1.00
O2       0.27350    0.16180    0.77350   1.00
O2       0.27350    0.33820    0.72650   1.00
O2       0.33820    0.27350    0.72650   1.00
O2       0.27350    0.27350    0.66180   1.00
O2       0.16180    0.22650    0.72650   1.00
O2       0.22650    0.16180    0.72650   1.00
O2       0.22650    0.22650    0.66180   1.00
C1       0.25000    0.25000    0.85520   1.00
C1       0.25000    0.35520    0.75000   1.00
C1       0.14480    0.25000    0.75000   1.00
C1       0.35520    0.25000    0.75000   1.00
C1       0.25000    0.14480    0.75000   1.00
C1       0.25000    0.25000    0.64480   1.00
O1       0.25000    0.75000    0.25000   1.00
Zn1      0.21720    0.78280    0.28280   1.00
Zn1      0.28280    0.71720    0.28280   1.00
Zn1      0.28280    0.78280    0.21720   1.00
Zn1      0.21720    0.71720    0.21720   1.00
O2       0.22650    0.77350    0.33820   1.00
O2       0.22650    0.83820    0.27350   1.00
O2       0.16180    0.77350    0.27350   1.00
O2       0.27350    0.72650    0.33820   1.00
O2       0.33820    0.72650    0.27350   1.00
O2       0.27350    0.66180    0.27350   1.00
O2       0.27350    0.83820    0.22650   1.00
O2       0.33820    0.77350    0.22650   1.00
O2       0.27350    0.77350    0.16180   1.00
O2       0.16180    0.72650    0.22650   1.00
O2       0.22650    0.66180    0.22650   1.00
O2       0.22650    0.72650    0.16180   1.00
C1       0.25000    0.75000    0.35520   1.00
C1       0.25000    0.85520    0.25000   1.00
C1       0.14480    0.75000    0.25000   1.00
C1       0.35520    0.75000    0.25000   1.00
C1       0.25000    0.64480    0.25000   1.00
C1       0.25000    0.75000    0.14480   1.00
O1       0.75000    0.25000    0.25000   1.00
Zn1      0.71720    0.28280    0.28280   1.00
Zn1      0.78280    0.21720    0.28280   1.00
Zn1      0.78280    0.28280    0.21720   1.00
Zn1      0.71720    0.21720    0.21720   1.00
O2       0.72650    0.27350    0.33820   1.00
O2       0.72650    0.33820    0.27350   1.00
O2       0.66180    0.27350    0.27350   1.00
O2       0.77350    0.22650    0.33820   1.00
O2       0.83820    0.22650    0.27350   1.00
O2       0.77350    0.16180    0.27350   1.00
O2       0.77350    0.33820    0.22650   1.00
O2       0.83820    0.27350    0.22650   1.00
O2       0.77350    0.27350    0.16180   1.00
O2       0.66180    0.22650    0.22650   1.00
O2       0.72650    0.16180    0.22650   1.00
O2       0.72650    0.22650    0.16180   1.00
C1       0.75000    0.25000    0.35520   1.00
C1       0.75000    0.35520    0.25000   1.00
C1       0.64480    0.25000    0.25000   1.00
C1       0.85520    0.25000    0.25000   1.00
C1       0.75000    0.14480    0.25000   1.00
C1       0.75000    0.25000    0.14480   1.00
O1       0.25000    0.25000    0.25000   1.00
Zn1      0.28280    0.21720    0.21720   1.00
Zn1      0.21720    0.28280    0.21720   1.00
Zn1      0.21720    0.21720    0.28280   1.00
Zn1      0.28280    0.28280    0.28280   1.00
O2       0.27350    0.22650    0.16180   1.00
O2       0.27350    0.16180    0.22650   1.00
O2       0.33820    0.22650    0.22650   1.00
O2       0.22650    0.27350    0.16180   1.00
O2       0.16180    0.27350    0.22650   1.00
O2       0.22650    0.33820    0.22650   1.00
O2       0.22650    0.16180    0.27350   1.00
O2       0.16180    0.22650    0.27350   1.00
O2       0.22650    0.22650    0.33820   1.00
O2       0.33820    0.27350    0.27350   1.00
O2       0.27350    0.33820    0.27350   1.00
O2       0.27350    0.27350    0.33820   1.00
C1       0.25000    0.25000    0.14480   1.00
C1       0.25000    0.14480    0.25000   1.00
C1       0.35520    0.25000    0.25000   1.00
C1       0.14480    0.25000    0.25000   1.00
C1       0.25000    0.35520    0.25000   1.00
C1       0.25000    0.25000    0.35520   1.00
O1       0.75000    0.75000    0.25000   1.00
Zn1      0.78280    0.71720    0.21720   1.00
Zn1      0.71720    0.78280    0.21720   1.00
Zn1      0.71720    0.71720    0.28280   1.00
Zn1      0.78280    0.78280    0.28280   1.00
O2       0.77350    0.72650    0.16180   1.00
O2       0.77350    0.66180    0.22650   1.00
O2       0.83820    0.72650    0.22650   1.00
O2       0.72650    0.77350    0.16180   1.00
O2       0.66180    0.77350    0.22650   1.00
O2       0.72650    0.83820    0.22650   1.00
O2       0.72650    0.66180    0.27350   1.00
O2       0.66180    0.72650    0.27350   1.00
O2       0.72650    0.72650    0.33820   1.00
O2       0.83820    0.77350    0.27350   1.00
O2       0.77350    0.83820    0.27350   1.00
O2       0.77350    0.77350    0.33820   1.00
C1       0.75000    0.75000    0.14480   1.00
C1       0.75000    0.64480    0.25000   1.00
C1       0.85520    0.75000    0.25000   1.00
C1       0.64480    0.75000    0.25000   1.00
C1       0.75000    0.85520    0.25000   1.00
C1       0.75000    0.75000    0.35520   1.00
O1       0.75000    0.25000    0.75000   1.00
Zn1      0.78280    0.21720    0.71720   1.00
Zn1      0.71720    0.28280    0.71720   1.00
Zn1      0.71720    0.21720    0.78280   1.00
Zn1      0.78280    0.28280    0.78280   1.00
O2       0.77350    0.22650    0.66180   1.00
O2       0.77350    0.16180    0.72650   1.00
O2       0.83820    0.22650    0.72650   1.00
O2       0.72650    0.27350    0.66180   1.00
O2       0.66180    0.27350    0.72650   1.00
O2       0.72650    0.33820    0.72650   1.00
O2       0.72650    0.16180    0.77350   1.00
O2       0.66180    0.22650    0.77350   1.00
O2       0.72650    0.22650    0.83820   1.00
O2       0.83820    0.27350    0.77350   1.00
O2       0.77350    0.33820    0.77350   1.00
O2       0.77350    0.27350    0.83820   1.00
C1       0.75000    0.25000    0.64480   1.00
C1       0.75000    0.14480    0.75000   1.00
C1       0.85520    0.25000    0.75000   1.00
C1       0.64480    0.25000    0.75000   1.00
C1       0.75000    0.35520    0.75000   1.00
C1       0.75000    0.25000    0.85520   1.00
O1       0.25000    0.75000    0.75000   1.00
Zn1      0.28280    0.71720    0.71720   1.00
Zn1      0.21720    0.78280    0.71720   1.00
Zn1      0.21720    0.71720    0.78280   1.00
Zn1      0.28280    0.78280    0.78280   1.00
O2       0.27350    0.72650    0.66180   1.00
O2       0.27350    0.66180    0.72650   1.00
O2       0.33820    0.72650    0.72650   1.00
O2       0.22650    0.77350    0.66180   1.00
O2       0.16180    0.77350    0.72650   1.00
O2       0.22650    0.83820    0.72650   1.00
O2       0.22650    0.66180    0.77350   1.00
O2       0.16180    0.72650    0.77350   1.00
O2       0.22650    0.72650    0.83820   1.00
O2       0.33820    0.77350    0.77350   1.00
O2       0.27350    0.83820    0.77350   1.00
O2       0.27350    0.77350    0.83820   1.00
C1       0.25000    0.75000    0.64480   1.00
C1       0.25000    0.64480    0.75000   1.00
C1       0.35520    0.75000    0.75000   1.00
C1       0.14480    0.75000    0.75000   1.00
C1       0.25000    0.85520    0.75000   1.00
C1       0.25000    0.75000    0.85520   1.00
C4       0.75009    0.75005    0.97915   1.00
C4       0.74991    0.74995    1.02085   1.00
C3       0.75846    0.78381    0.95708   1.00
C3       0.78155    0.73452    1.04225   1.00
C3       0.74173    0.71557    0.95816   1.00
C3a      0.71813    0.76587    1.04263   1.00
C2       0.74933    0.74865    0.89483   1.00
C2       0.75091    0.75115    1.10517   1.00
C3       0.75805    0.78306    0.91566   1.00
C3       0.78199    0.73515    1.08359   1.00
C3       0.74119    0.71494    0.91680   1.00
C3       0.71920    0.76633    1.08415   1.00
H1       0.76529    0.81085    0.97192   1.00
H1       0.80622    0.72215    1.02685   1.00
H1       0.76454    0.80952    0.89968   1.00
H1       0.80684    0.72312    1.09895   1.00
H1       0.73411    0.68806    0.90179   1.00
H1       0.69493    0.77833    1.10043   1.00
C5       0.68226    0.78186    1.02239   1.00
H1       0.73454    0.68920    0.97401   1.00
H2       0.66249    0.79648    1.04354   1.00
H2       0.69122    0.80454    1.00103   1.00
N1       0.66069    0.75056    1.00292   1.00
C6       0.64532    0.71875    1.02012   1.00
C6       0.65227    0.74852    0.96460   1.00
C6       0.62716    0.69590    0.99243   1.00
C6       0.63160    0.71483    0.95711   1.00
H3       0.64735    0.71231    1.05099   1.00
H3       0.66101    0.76995    0.94309   1.00
H3       0.61231    0.66852    0.99741   1.00
H3       0.62099    0.70514    0.92903   1.00
C4       0.75005    0.97915    0.75009   1.00
C4       0.74995    1.02085    0.74991   1.00
C3       0.78381    0.95708    0.75846   1.00
C3       0.73452    1.04225    0.78155   1.00
C3       0.71557    0.95816    0.74173   1.00
C3a      0.76587    1.04263    0.71813   1.00
C2       0.74865    0.89483    0.74933   1.00
C2       0.75115    1.10517    0.75091   1.00
C3       0.78306    0.91566    0.75805   1.00
C3       0.73515    1.08359    0.78199   1.00
C3       0.71494    0.91680    0.74119   1.00
C3       0.76633    1.08415    0.71920   1.00
H1       0.81085    0.97192    0.76529   1.00
H1       0.72215    1.02685    0.80622   1.00
H1       0.80952    0.89968    0.76454   1.00
H1       0.72312    1.09895    0.80684   1.00
H1       0.68806    0.90179    0.73411   1.00
H1       0.77833    1.10043    0.69493   1.00
C5       0.78186    1.02239    0.68226   1.00
H1       0.68920    0.97401    0.73454   1.00
H2       0.79648    1.04354    0.66249   1.00
H2       0.80454    1.00103    0.69122   1.00
N1       0.75056    1.00292    0.66069   1.00
C6       0.71875    1.02012    0.64532   1.00
C6       0.74852    0.96460    0.65227   1.00
C6       0.69590    0.99243    0.62716   1.00
C6       0.71483    0.95711    0.63160   1.00
H3       0.71231    1.05099    0.64735   1.00
H3       0.76995    0.94309    0.66101   1.00
H3       0.66852    0.99741    0.61231   1.00
H3       0.70514    0.92903    0.62099   1.00
C4       0.52085    0.75009    0.74995   1.00
C4       0.47915    0.74991    0.75005   1.00
C3       0.54292    0.75846    0.71619   1.00
C3       0.45775    0.78155    0.76548   1.00
C3       0.54184    0.74173    0.78443   1.00
C3a      0.45737    0.71813    0.73413   1.00
C2       0.60517    0.74933    0.75135   1.00
C2       0.39483    0.75091    0.74885   1.00
C3       0.58434    0.75805    0.71694   1.00
C3       0.41641    0.78199    0.76485   1.00
C3       0.58320    0.74119    0.78506   1.00
C3       0.41585    0.71920    0.73367   1.00
H1       0.52808    0.76529    0.68915   1.00
H1       0.47315    0.80622    0.77785   1.00
H1       0.60032    0.76454    0.69048   1.00
H1       0.40105    0.80684    0.77688   1.00
H1       0.59821    0.73411    0.81194   1.00
H1       0.39957    0.69493    0.72167   1.00
C5       0.47761    0.68226    0.71814   1.00
H1       0.52599    0.73454    0.81080   1.00
H2       0.45646    0.66249    0.70352   1.00
H2       0.49897    0.69122    0.69546   1.00
N1       0.49708    0.66069    0.74944   1.00
C6       0.47988    0.64532    0.78125   1.00
C6       0.53540    0.65227    0.75148   1.00
C6       0.50757    0.62716    0.80410   1.00
C6       0.54289    0.63160    0.78517   1.00
H3       0.44901    0.64735    0.78769   1.00
H3       0.55691    0.66101    0.73005   1.00
H3       0.50259    0.61231    0.83148   1.00
H3       0.57097    0.62099    0.79486   1.00
C4       0.97915    0.75009    0.75005   1.00
C4       1.02085    0.74991    0.74995   1.00
C3       0.95708    0.75846    0.78381   1.00
C3       1.04225    0.78155    0.73452   1.00
C3       0.95816    0.74173    0.71557   1.00
C3a      1.04263    0.71813    0.76587   1.00
C2       0.89483    0.74933    0.74865   1.00
C2       1.10517    0.75091    0.75115   1.00
C3       0.91566    0.75805    0.78306   1.00
C3       1.08359    0.78199    0.73515   1.00
C3       0.91680    0.74119    0.71494   1.00
C3       1.08415    0.71920    0.76633   1.00
H1       0.97192    0.76529    0.81085   1.00
H1       1.02685    0.80622    0.72215   1.00
H1       0.89968    0.76454    0.80952   1.00
H1       1.09895    0.80684    0.72312   1.00
H1       0.90179    0.73411    0.68806   1.00
H1       1.10043    0.69493    0.77833   1.00
C5       1.02239    0.68226    0.78186   1.00
H1       0.97401    0.73454    0.68920   1.00
H2       1.04354    0.66249    0.79648   1.00
H2       1.00103    0.69122    0.80454   1.00
N1       1.00292    0.66069    0.75056   1.00
C6       1.02012    0.64532    0.71875   1.00
C6       0.96460    0.65227    0.74852   1.00
C6       0.99243    0.62716    0.69590   1.00
C6       0.95711    0.63160    0.71483   1.00
H3       1.05099    0.64735    0.71231   1.00
H3       0.94309    0.66101    0.76995   1.00
H3       0.99741    0.61231    0.66852   1.00
H3       0.92903    0.62099    0.70514   1.00
C4       0.74995    0.52085    0.75009   1.00
C4       0.75005    0.47915    0.74991   1.00
C3       0.71619    0.54292    0.75846   1.00
C3       0.76548    0.45775    0.78155   1.00
C3       0.78443    0.54184    0.74173   1.00
C3a      0.73413    0.45737    0.71813   1.00
C2       0.75135    0.60517    0.74933   1.00
C2       0.74885    0.39483    0.75091   1.00
C3       0.71694    0.58434    0.75805   1.00
C3       0.76485    0.41641    0.78199   1.00
C3       0.78506    0.58320    0.74119   1.00
C3       0.73367    0.41585    0.71920   1.00
H1       0.68915    0.52808    0.76529   1.00
H1       0.77785    0.47315    0.80622   1.00
H1       0.69048    0.60032    0.76454   1.00
H1       0.77688    0.40105    0.80684   1.00
H1       0.81194    0.59821    0.73411   1.00
H1       0.72167    0.39957    0.69493   1.00
C5       0.71814    0.47761    0.68226   1.00
H1       0.81080    0.52599    0.73454   1.00
H2       0.70352    0.45646    0.66249   1.00
H2       0.69546    0.49897    0.69122   1.00
N1       0.74944    0.49708    0.66069   1.00
C6       0.78125    0.47988    0.64532   1.00
C6       0.75148    0.53540    0.65227   1.00
C6       0.80410    0.50757    0.62716   1.00
C6       0.78517    0.54289    0.63160   1.00
H3       0.78769    0.44901    0.64735   1.00
H3       0.73005    0.55691    0.66101   1.00
H3       0.83148    0.50259    0.61231   1.00
H3       0.79486    0.57097    0.62099   1.00
C4       0.75009    0.74995    0.52085   1.00
C4       0.74991    0.75005    0.47915   1.00
C3       0.75846    0.71619    0.54292   1.00
C3       0.78155    0.76548    0.45775   1.00
C3       0.74173    0.78443    0.54184   1.00
C3a      0.71813    0.73413    0.45737   1.00
C2       0.74933    0.75135    0.60517   1.00
C2       0.75091    0.74885    0.39483   1.00
C3       0.75805    0.71694    0.58434   1.00
C3       0.78199    0.76485    0.41641   1.00
C3       0.74119    0.78506    0.58320   1.00
C3       0.71920    0.73367    0.41585   1.00
H1       0.76529    0.68915    0.52808   1.00
H1       0.80622    0.77785    0.47315   1.00
H1       0.76454    0.69048    0.60032   1.00
H1       0.80684    0.77688    0.40105   1.00
H1       0.73411    0.81194    0.59821   1.00
H1       0.69493    0.72167    0.39957   1.00
C5       0.68226    0.71814    0.47761   1.00
H1       0.73454    0.81080    0.52599   1.00
H2       0.66249    0.70352    0.45646   1.00
H2       0.69122    0.69546    0.49897   1.00
N1       0.66069    0.74944    0.49708   1.00
C6       0.64532    0.78125    0.47988   1.00
C6       0.65227    0.75148    0.53540   1.00
C6       0.62716    0.80410    0.50757   1.00
C6       0.63160    0.78517    0.54289   1.00
H3       0.64735    0.78769    0.44901   1.00
H3       0.66101    0.73005    0.55691   1.00
H3       0.61231    0.83148    0.50259   1.00
H3       0.62099    0.79486    0.57097   1.00
C4       0.25009    0.25005    0.97915   1.00
C4       0.24991    0.24995    1.02085   1.00
C3       0.25846    0.28381    0.95708   1.00
C3       0.28155    0.23452    1.04225   1.00
C3       0.24173    0.21557    0.95816   1.00
C3a      0.21813    0.26587    1.04263   1.00
C2       0.24933    0.24865    0.89483   1.00
C2       0.25091    0.25115    1.10517   1.00
C3       0.25805    0.28306    0.91566   1.00
C3       0.28199    0.23515    1.08359   1.00
C3       0.24119    0.21494    0.91680   1.00
C3       0.21920    0.26633    1.08415   1.00
H1       0.26529    0.31085    0.97192   1.00
H1       0.30622    0.22215    1.02685   1.00
H1       0.26454    0.30952    0.89968   1.00
H1       0.30684    0.22312    1.09895   1.00
H1       0.23411    0.18806    0.90179   1.00
H1       0.19493    0.27833    1.10043   1.00
C5       0.18226    0.28186    1.02239   1.00
H1       0.23454    0.18920    0.97401   1.00
H2       0.16249    0.29648    1.04354   1.00
H2       0.19122    0.30454    1.00103   1.00
N1       0.16069    0.25056    1.00292   1.00
C6       0.14532    0.21875    1.02012   1.00
C6       0.15227    0.24852    0.96460   1.00
C6       0.12716    0.19590    0.99243   1.00
C6       0.13160    0.21483    0.95711   1.00
H3       0.14735    0.21231    1.05099   1.00
H3       0.16101    0.26995    0.94309   1.00
H3       0.11231    0.16852    0.99741   1.00
H3       0.12099    0.20514    0.92903   1.00
C4       0.25005    0.47915    0.75009   1.00
C4       0.24995    0.52085    0.74991   1.00
C3       0.28381    0.45708    0.75846   1.00
C3       0.23452    0.54225    0.78155   1.00
C3       0.21557    0.45816    0.74173   1.00
C3a      0.26587    0.54263    0.71813   1.00
C2       0.24865    0.39483    0.74933   1.00
C2       0.25115    0.60517    0.75091   1.00
C3       0.28306    0.41566    0.75805   1.00
C3       0.23515    0.58359    0.78199   1.00
C3       0.21494    0.41680    0.74119   1.00
C3       0.26633    0.58415    0.71920   1.00
H1       0.31085    0.47192    0.76529   1.00
H1       0.22215    0.52685    0.80622   1.00
H1       0.30952    0.39968    0.76454   1.00
H1       0.22312    0.59895    0.80684   1.00
H1       0.18806    0.40179    0.73411   1.00
H1       0.27833    0.60043    0.69493   1.00
C5       0.28186    0.52239    0.68226   1.00
H1       0.18920    0.47401    0.73454   1.00
H2       0.29648    0.54354    0.66249   1.00
H2       0.30454    0.50103    0.69122   1.00
N1       0.25056    0.50292    0.66069   1.00
C6       0.21875    0.52012    0.64532   1.00
C6       0.24852    0.46460    0.65227   1.00
C6       0.19590    0.49243    0.62716   1.00
C6       0.21483    0.45711    0.63160   1.00
H3       0.21231    0.55099    0.64735   1.00
H3       0.26995    0.44309    0.66101   1.00
H3       0.16852    0.49741    0.61231   1.00
H3       0.20514    0.42903    0.62099   1.00
C4       0.02085    0.25009    0.74995   1.00
C4       -0.02085   0.24991    0.75005   1.00
C3       0.04292    0.25846    0.71619   1.00
C3       -0.04225   0.28155    0.76548   1.00
C3       0.04184    0.24173    0.78443   1.00
C3a      -0.04263   0.21813    0.73413   1.00
C2       0.10517    0.24933    0.75135   1.00
C2       -0.10517   0.25091    0.74885   1.00
C3       0.08434    0.25805    0.71694   1.00
C3       -0.08359   0.28199    0.76485   1.00
C3       0.08320    0.24119    0.78506   1.00
C3       -0.08415   0.21920    0.73367   1.00
H1       0.02808    0.26529    0.68915   1.00
H1       -0.02685   0.30622    0.77785   1.00
H1       0.10032    0.26454    0.69048   1.00
H1       -0.09895   0.30684    0.77688   1.00
H1       0.09821    0.23411    0.81194   1.00
H1       -0.10043   0.19493    0.72167   1.00
C5       -0.02239   0.18226    0.71814   1.00
H1       0.02599    0.23454    0.81080   1.00
H2       -0.04354   0.16249    0.70352   1.00
H2       -0.00103   0.19122    0.69546   1.00
N1       -0.00292   0.16069    0.74944   1.00
C6       -0.02012   0.14532    0.78125   1.00
C6       0.03540    0.15227    0.75148   1.00
C6       0.00757    0.12716    0.80410   1.00
C6       0.04289    0.13160    0.78517   1.00
H3       -0.05099   0.14735    0.78769   1.00
H3       0.05691    0.16101    0.73005   1.00
H3       0.00259    0.11231    0.83148   1.00
H3       0.07097    0.12099    0.79486   1.00
C4       0.47915    0.25009    0.75005   1.00
C4       0.52085    0.24991    0.74995   1.00
C3       0.45708    0.25846    0.78381   1.00
C3       0.54225    0.28155    0.73452   1.00
C3       0.45816    0.24173    0.71557   1.00
C3a      0.54263    0.21813    0.76587   1.00
C2       0.39483    0.24933    0.74865   1.00
C2       0.60517    0.25091    0.75115   1.00
C3       0.41566    0.25805    0.78306   1.00
C3       0.58359    0.28199    0.73515   1.00
C3       0.41680    0.24119    0.71494   1.00
C3       0.58415    0.21920    0.76633   1.00
H1       0.47192    0.26529    0.81085   1.00
H1       0.52685    0.30622    0.72215   1.00
H1       0.39968    0.26454    0.80952   1.00
H1       0.59895    0.30684    0.72312   1.00
H1       0.40179    0.23411    0.68806   1.00
H1       0.60043    0.19493    0.77833   1.00
C5       0.52239    0.18226    0.78186   1.00
H1       0.47401    0.23454    0.68920   1.00
H2       0.54354    0.16249    0.79648   1.00
H2       0.50103    0.19122    0.80454   1.00
N1       0.50292    0.16069    0.75056   1.00
C6       0.52012    0.14532    0.71875   1.00
C6       0.46460    0.15227    0.74852   1.00
C6       0.49243    0.12716    0.69590   1.00
C6       0.45711    0.13160    0.71483   1.00
H3       0.55099    0.14735    0.71231   1.00
H3       0.44309    0.16101    0.76995   1.00
H3       0.49741    0.11231    0.66852   1.00
H3       0.42903    0.12099    0.70514   1.00
C4       0.24995    0.02085    0.75009   1.00
C4       0.25005    -0.02085   0.74991   1.00
C3       0.21619    0.04292    0.75846   1.00
C3       0.26548    -0.04225   0.78155   1.00
C3       0.28443    0.04184    0.74173   1.00
C3a      0.23413    -0.04263   0.71813   1.00
C2       0.25135    0.10517    0.74933   1.00
C2       0.24885    -0.10517   0.75091   1.00
C3       0.21694    0.08434    0.75805   1.00
C3       0.26485    -0.08359   0.78199   1.00
C3       0.28506    0.08320    0.74119   1.00
C3       0.23367    -0.08415   0.71920   1.00
H1       0.18915    0.02808    0.76529   1.00
H1       0.27785    -0.02685   0.80622   1.00
H1       0.19048    0.10032    0.76454   1.00
H1       0.27688    -0.09895   0.80684   1.00
H1       0.31194    0.09821    0.73411   1.00
H1       0.22167    -0.10043   0.69493   1.00
C5       0.21814    -0.02239   0.68226   1.00
H1       0.31080    0.02599    0.73454   1.00
H2       0.20352    -0.04354   0.66249   1.00
H2       0.19546    -0.00103   0.69122   1.00
N1       0.24944    -0.00292   0.66069   1.00
C6       0.28125    -0.02012   0.64532   1.00
C6       0.25148    0.03540    0.65227   1.00
C6       0.30410    0.00757    0.62716   1.00
C6       0.28517    0.04289    0.63160   1.00
H3       0.28769    -0.05099   0.64735   1.00
H3       0.23005    0.05691    0.66101   1.00
H3       0.33148    0.00259    0.61231   1.00
H3       0.29486    0.07097    0.62099   1.00
C4       0.25009    0.24995    0.52085   1.00
C4       0.24991    0.25005    0.47915   1.00
C3       0.25846    0.21619    0.54292   1.00
C3       0.28155    0.26548    0.45775   1.00
C3       0.24173    0.28443    0.54184   1.00
C3a      0.21813    0.23413    0.45737   1.00
C2       0.24933    0.25135    0.60517   1.00
C2       0.25091    0.24885    0.39483   1.00
C3       0.25805    0.21694    0.58434   1.00
C3       0.28199    0.26485    0.41641   1.00
C3       0.24119    0.28506    0.58320   1.00
C3       0.21920    0.23367    0.41585   1.00
H1       0.26529    0.18915    0.52808   1.00
H1       0.30622    0.27785    0.47315   1.00
H1       0.26454    0.19048    0.60032   1.00
H1       0.30684    0.27688    0.40105   1.00
H1       0.23411    0.31194    0.59821   1.00
H1       0.19493    0.22167    0.39957   1.00
C5       0.18226    0.21814    0.47761   1.00
H1       0.23454    0.31080    0.52599   1.00
H2       0.16249    0.20352    0.45646   1.00
H2       0.19122    0.19546    0.49897   1.00
N1       0.16069    0.24944    0.49708   1.00
C6       0.14532    0.28125    0.47988   1.00
C6       0.15227    0.25148    0.53540   1.00
C6       0.12716    0.30410    0.50757   1.00
C6       0.13160    0.28517    0.54289   1.00
H3       0.14735    0.28769    0.44901   1.00
H3       0.16101    0.23005    0.55691   1.00
H3       0.11231    0.33148    0.50259   1.00
H3       0.12099    0.29486    0.57097   1.00
C4       0.25009    0.75005    0.47915   1.00
C4       0.24991    0.74995    0.52085   1.00
C3       0.25846    0.78381    0.45708   1.00
C3       0.28155    0.73452    0.54225   1.00
C3       0.24173    0.71557    0.45816   1.00
C3a      0.21813    0.76587    0.54263   1.00
C2       0.24933    0.74865    0.39483   1.00
C2       0.25091    0.75115    0.60517   1.00
C3       0.25805    0.78306    0.41566   1.00
C3       0.28199    0.73515    0.58359   1.00
C3       0.24119    0.71494    0.41680   1.00
C3       0.21920    0.76633    0.58415   1.00
H1       0.26529    0.81085    0.47192   1.00
H1       0.30622    0.72215    0.52685   1.00
H1       0.26454    0.80952    0.39968   1.00
H1       0.30684    0.72312    0.59895   1.00
H1       0.23411    0.68806    0.40179   1.00
H1       0.19493    0.77833    0.60043   1.00
C5       0.18226    0.78186    0.52239   1.00
H1       0.23454    0.68920    0.47401   1.00
H2       0.16249    0.79648    0.54354   1.00
H2       0.19122    0.80454    0.50103   1.00
N1       0.16069    0.75056    0.50292   1.00
C6       0.14532    0.71875    0.52012   1.00
C6       0.15227    0.74852    0.46460   1.00
C6       0.12716    0.69590    0.49243   1.00
C6       0.13160    0.71483    0.45711   1.00
H3       0.14735    0.71231    0.55099   1.00
H3       0.16101    0.76995    0.44309   1.00
H3       0.11231    0.66852    0.49741   1.00
H3       0.12099    0.70514    0.42903   1.00
C4       0.25005    0.97915    0.25009   1.00
C4       0.24995    1.02085    0.24991   1.00
C3       0.28381    0.95708    0.25846   1.00
C3       0.23452    1.04225    0.28155   1.00
C3       0.21557    0.95816    0.24173   1.00
C3a      0.26587    1.04263    0.21813   1.00
C2       0.24865    0.89483    0.24933   1.00
C2       0.25115    1.10517    0.25091   1.00
C3       0.28306    0.91566    0.25805   1.00
C3       0.23515    1.08359    0.28199   1.00
C3       0.21494    0.91680    0.24119   1.00
C3       0.26633    1.08415    0.21920   1.00
H1       0.31085    0.97192    0.26529   1.00
H1       0.22215    1.02685    0.30622   1.00
H1       0.30952    0.89968    0.26454   1.00
H1       0.22312    1.09895    0.30684   1.00
H1       0.18806    0.90179    0.23411   1.00
H1       0.27833    1.10043    0.19493   1.00
C5       0.28186    1.02239    0.18226   1.00
H1       0.18920    0.97401    0.23454   1.00
H2       0.29648    1.04354    0.16249   1.00
H2       0.30454    1.00103    0.19122   1.00
N1       0.25056    1.00292    0.16069   1.00
C6       0.21875    1.02012    0.14532   1.00
C6       0.24852    0.96460    0.15227   1.00
C6       0.19590    0.99243    0.12716   1.00
C6       0.21483    0.95711    0.13160   1.00
H3       0.21231    1.05099    0.14735   1.00
H3       0.26995    0.94309    0.16101   1.00
H3       0.16852    0.99741    0.11231   1.00
H3       0.20514    0.92903    0.12099   1.00
C4       0.02085    0.75009    0.24995   1.00
C4       -0.02085   0.74991    0.25005   1.00
C3       0.04292    0.75846    0.21619   1.00
C3       -0.04225   0.78155    0.26548   1.00
C3       0.04184    0.74173    0.28443   1.00
C3a      -0.04263   0.71813    0.23413   1.00
C2       0.10517    0.74933    0.25135   1.00
C2       -0.10517   0.75091    0.24885   1.00
C3       0.08434    0.75805    0.21694   1.00
C3       -0.08359   0.78199    0.26485   1.00
C3       0.08320    0.74119    0.28506   1.00
C3       -0.08415   0.71920    0.23367   1.00
H1       0.02808    0.76529    0.18915   1.00
H1       -0.02685   0.80622    0.27785   1.00
H1       0.10032    0.76454    0.19048   1.00
H1       -0.09895   0.80684    0.27688   1.00
H1       0.09821    0.73411    0.31194   1.00
H1       -0.10043   0.69493    0.22167   1.00
C5       -0.02239   0.68226    0.21814   1.00
H1       0.02599    0.73454    0.31080   1.00
H2       -0.04354   0.66249    0.20352   1.00
H2       -0.00103   0.69122    0.19546   1.00
N1       -0.00292   0.66069    0.24944   1.00
C6       -0.02012   0.64532    0.28125   1.00
C6       0.03540    0.65227    0.25148   1.00
C6       0.00757    0.62716    0.30410   1.00
C6       0.04289    0.63160    0.28517   1.00
H3       -0.05099   0.64735    0.28769   1.00
H3       0.05691    0.66101    0.23005   1.00
H3       0.00259    0.61231    0.33148   1.00
H3       0.07097    0.62099    0.29486   1.00
C4       0.47915    0.75009    0.25005   1.00
C4       0.52085    0.74991    0.24995   1.00
C3       0.45708    0.75846    0.28381   1.00
C3       0.54225    0.78155    0.23452   1.00
C3       0.45816    0.74173    0.21557   1.00
C3a      0.54263    0.71813    0.26587   1.00
C2       0.39483    0.74933    0.24865   1.00
C2       0.60517    0.75091    0.25115   1.00
C3       0.41566    0.75805    0.28306   1.00
C3       0.58359    0.78199    0.23515   1.00
C3       0.41680    0.74119    0.21494   1.00
C3       0.58415    0.71920    0.26633   1.00
H1       0.47192    0.76529    0.31085   1.00
H1       0.52685    0.80622    0.22215   1.00
H1       0.39968    0.76454    0.30952   1.00
H1       0.59895    0.80684    0.22312   1.00
H1       0.40179    0.73411    0.18806   1.00
H1       0.60043    0.69493    0.27833   1.00
C5       0.52239    0.68226    0.28186   1.00
H1       0.47401    0.73454    0.18920   1.00
H2       0.54354    0.66249    0.29648   1.00
H2       0.50103    0.69122    0.30454   1.00
N1       0.50292    0.66069    0.25056   1.00
C6       0.52012    0.64532    0.21875   1.00
C6       0.46460    0.65227    0.24852   1.00
C6       0.49243    0.62716    0.19590   1.00
C6       0.45711    0.63160    0.21483   1.00
H3       0.55099    0.64735    0.21231   1.00
H3       0.44309    0.66101    0.26995   1.00
H3       0.49741    0.61231    0.16852   1.00
H3       0.42903    0.62099    0.20514   1.00
C4       0.24995    0.52085    0.25009   1.00
C4       0.25005    0.47915    0.24991   1.00
C3       0.21619    0.54292    0.25846   1.00
C3       0.26548    0.45775    0.28155   1.00
C3       0.28443    0.54184    0.24173   1.00
C3a      0.23413    0.45737    0.21813   1.00
C2       0.25135    0.60517    0.24933   1.00
C2       0.24885    0.39483    0.25091   1.00
C3       0.21694    0.58434    0.25805   1.00
C3       0.26485    0.41641    0.28199   1.00
C3       0.28506    0.58320    0.24119   1.00
C3       0.23367    0.41585    0.21920   1.00
H1       0.18915    0.52808    0.26529   1.00
H1       0.27785    0.47315    0.30622   1.00
H1       0.19048    0.60032    0.26454   1.00
H1       0.27688    0.40105    0.30684   1.00
H1       0.31194    0.59821    0.23411   1.00
H1       0.22167    0.39957    0.19493   1.00
C5       0.21814    0.47761    0.18226   1.00
H1       0.31080    0.52599    0.23454   1.00
H2       0.20352    0.45646    0.16249   1.00
H2       0.19546    0.49897    0.19122   1.00
N1       0.24944    0.49708    0.16069   1.00
C6       0.28125    0.47988    0.14532   1.00
C6       0.25148    0.53540    0.15227   1.00
C6       0.30410    0.50757    0.12716   1.00
C6       0.28517    0.54289    0.13160   1.00
H3       0.28769    0.44901    0.14735   1.00
H3       0.23005    0.55691    0.16101   1.00
H3       0.33148    0.50259    0.11231   1.00
H3       0.29486    0.57097    0.12099   1.00
C4       0.25009    0.74995    0.02085   1.00
C4       0.24991    0.75005    -0.02085   1.00
C3       0.25846    0.71619    0.04292   1.00
C3       0.28155    0.76548    -0.04225   1.00
C3       0.24173    0.78443    0.04184   1.00
C3a      0.21813    0.73413    -0.04263   1.00
C2       0.24933    0.75135    0.10517   1.00
C2       0.25091    0.74885    -0.10517   1.00
C3       0.25805    0.71694    0.08434   1.00
C3       0.28199    0.76485    -0.08359   1.00
C3       0.24119    0.78506    0.08320   1.00
C3       0.21920    0.73367    -0.08415   1.00
H1       0.26529    0.68915    0.02808   1.00
H1       0.30622    0.77785    -0.02685   1.00
H1       0.26454    0.69048    0.10032   1.00
H1       0.30684    0.77688    -0.09895   1.00
H1       0.23411    0.81194    0.09821   1.00
H1       0.19493    0.72167    -0.10043   1.00
C5       0.18226    0.71814    -0.02239   1.00
H1       0.23454    0.81080    0.02599   1.00
H2       0.16249    0.70352    -0.04354   1.00
H2       0.19122    0.69546    -0.00103   1.00
N1       0.16069    0.74944    -0.00292   1.00
C6       0.14532    0.78125    -0.02012   1.00
C6       0.15227    0.75148    0.03540   1.00
C6       0.12716    0.80410    0.00757   1.00
C6       0.13160    0.78517    0.04289   1.00
H3       0.14735    0.78769    -0.05099   1.00
H3       0.16101    0.73005    0.05691   1.00
H3       0.11231    0.83148    0.00259   1.00
H3       0.12099    0.79486    0.07097   1.00
C4       0.75009    0.25005    0.47915   1.00
C4       0.74991    0.24995    0.52085   1.00
C3       0.75846    0.28381    0.45708   1.00
C3       0.78155    0.23452    0.54225   1.00
C3       0.74173    0.21557    0.45816   1.00
C3a      0.71813    0.26587    0.54263   1.00
C2       0.74933    0.24865    0.39483   1.00
C2       0.75091    0.25115    0.60517   1.00
C3       0.75805    0.28306    0.41566   1.00
C3       0.78199    0.23515    0.58359   1.00
C3       0.74119    0.21494    0.41680   1.00
C3       0.71920    0.26633    0.58415   1.00
H1       0.76529    0.31085    0.47192   1.00
H1       0.80622    0.22215    0.52685   1.00
H1       0.76454    0.30952    0.39968   1.00
H1       0.80684    0.22312    0.59895   1.00
H1       0.73411    0.18806    0.40179   1.00
H1       0.69493    0.27833    0.60043   1.00
C5       0.68226    0.28186    0.52239   1.00
H1       0.73454    0.18920    0.47401   1.00
H2       0.66249    0.29648    0.54354   1.00
H2       0.69122    0.30454    0.50103   1.00
N1       0.66069    0.25056    0.50292   1.00
C6       0.64532    0.21875    0.52012   1.00
C6       0.65227    0.24852    0.46460   1.00
C6       0.62716    0.19590    0.49243   1.00
C6       0.63160    0.21483    0.45711   1.00
H3       0.64735    0.21231    0.55099   1.00
H3       0.66101    0.26995    0.44309   1.00
H3       0.61231    0.16852    0.49741   1.00
H3       0.62099    0.20514    0.42903   1.00
C4       0.75005    0.47915    0.25009   1.00
C4       0.74995    0.52085    0.24991   1.00
C3       0.78381    0.45708    0.25846   1.00
C3       0.73452    0.54225    0.28155   1.00
C3       0.71557    0.45816    0.24173   1.00
C3a      0.76587    0.54263    0.21813   1.00
C2       0.74865    0.39483    0.24933   1.00
C2       0.75115    0.60517    0.25091   1.00
C3       0.78306    0.41566    0.25805   1.00
C3       0.73515    0.58359    0.28199   1.00
C3       0.71494    0.41680    0.24119   1.00
C3       0.76633    0.58415    0.21920   1.00
H1       0.81085    0.47192    0.26529   1.00
H1       0.72215    0.52685    0.30622   1.00
H1       0.80952    0.39968    0.26454   1.00
H1       0.72312    0.59895    0.30684   1.00
H1       0.68806    0.40179    0.23411   1.00
H1       0.77833    0.60043    0.19493   1.00
C5       0.78186    0.52239    0.18226   1.00
H1       0.68920    0.47401    0.23454   1.00
H2       0.79648    0.54354    0.16249   1.00
H2       0.80454    0.50103    0.19122   1.00
N1       0.75056    0.50292    0.16069   1.00
C6       0.71875    0.52012    0.14532   1.00
C6       0.74852    0.46460    0.15227   1.00
C6       0.69590    0.49243    0.12716   1.00
C6       0.71483    0.45711    0.13160   1.00
H3       0.71231    0.55099    0.14735   1.00
H3       0.76995    0.44309    0.16101   1.00
H3       0.66852    0.49741    0.11231   1.00
H3       0.70514    0.42903    0.12099   1.00
C4       0.52085    0.25009    0.24995   1.00
C4       0.47915    0.24991    0.25005   1.00
C3       0.54292    0.25846    0.21619   1.00
C3       0.45775    0.28155    0.26548   1.00
C3       0.54184    0.24173    0.28443   1.00
C3a      0.45737    0.21813    0.23413   1.00
C2       0.60517    0.24933    0.25135   1.00
C2       0.39483    0.25091    0.24885   1.00
C3       0.58434    0.25805    0.21694   1.00
C3       0.41641    0.28199    0.26485   1.00
C3       0.58320    0.24119    0.28506   1.00
C3       0.41585    0.21920    0.23367   1.00
H1       0.52808    0.26529    0.18915   1.00
H1       0.47315    0.30622    0.27785   1.00
H1       0.60032    0.26454    0.19048   1.00
H1       0.40105    0.30684    0.27688   1.00
H1       0.59821    0.23411    0.31194   1.00
H1       0.39957    0.19493    0.22167   1.00
C5       0.47761    0.18226    0.21814   1.00
H1       0.52599    0.23454    0.31080   1.00
H2       0.45646    0.16249    0.20352   1.00
H2       0.49897    0.19122    0.19546   1.00
N1       0.49708    0.16069    0.24944   1.00
C6       0.47988    0.14532    0.28125   1.00
C6       0.53540    0.15227    0.25148   1.00
C6       0.50757    0.12716    0.30410   1.00
C6       0.54289    0.13160    0.28517   1.00
H3       0.44901    0.14735    0.28769   1.00
H3       0.55691    0.16101    0.23005   1.00
H3       0.50259    0.11231    0.33148   1.00
H3       0.57097    0.12099    0.29486   1.00
C4       0.97915    0.25009    0.25005   1.00
C4       1.02085    0.24991    0.24995   1.00
C3       0.95708    0.25846    0.28381   1.00
C3       1.04225    0.28155    0.23452   1.00
C3       0.95816    0.24173    0.21557   1.00
C3a      1.04263    0.21813    0.26587   1.00
C2       0.89483    0.24933    0.24865   1.00
C2       1.10517    0.25091    0.25115   1.00
C3       0.91566    0.25805    0.28306   1.00
C3       1.08359    0.28199    0.23515   1.00
C3       0.91680    0.24119    0.21494   1.00
C3       1.08415    0.21920    0.26633   1.00
H1       0.97192    0.26529    0.31085   1.00
H1       1.02685    0.30622    0.22215   1.00
H1       0.89968    0.26454    0.30952   1.00
H1       1.09895    0.30684    0.22312   1.00
H1       0.90179    0.23411    0.18806   1.00
H1       1.10043    0.19493    0.27833   1.00
C5       1.02239    0.18226    0.28186   1.00
H1       0.97401    0.23454    0.18920   1.00
H2       1.04354    0.16249    0.29648   1.00
H2       1.00103    0.19122    0.30454   1.00
N1       1.00292    0.16069    0.25056   1.00
C6       1.02012    0.14532    0.21875   1.00
C6       0.96460    0.15227    0.24852   1.00
C6       0.99243    0.12716    0.19590   1.00
C6       0.95711    0.13160    0.21483   1.00
H3       1.05099    0.14735    0.21231   1.00
H3       0.94309    0.16101    0.26995   1.00
H3       0.99741    0.11231    0.16852   1.00
H3       0.92903    0.12099    0.20514   1.00
C4       0.74995    0.02085    0.25009   1.00
C4       0.75005    -0.02085   0.24991   1.00
C3       0.71619    0.04292    0.25846   1.00
C3       0.76548    -0.04225   0.28155   1.00
C3       0.78443    0.04184    0.24173   1.00
C3a      0.73413    -0.04263   0.21813   1.00
C2       0.75135    0.10517    0.24933   1.00
C2       0.74885    -0.10517   0.25091   1.00
C3       0.71694    0.08434    0.25805   1.00
C3       0.76485    -0.08359   0.28199   1.00
C3       0.78506    0.08320    0.24119   1.00
C3       0.73367    -0.08415   0.21920   1.00
H1       0.68915    0.02808    0.26529   1.00
H1       0.77785    -0.02685   0.30622   1.00
H1       0.69048    0.10032    0.26454   1.00
H1       0.77688    -0.09895   0.30684   1.00
H1       0.81194    0.09821    0.23411   1.00
H1       0.72167    -0.10043   0.19493   1.00
C5       0.71814    -0.02239   0.18226   1.00
H1       0.81080    0.02599    0.23454   1.00
H2       0.70352    -0.04354   0.16249   1.00
H2       0.69546    -0.00103   0.19122   1.00
N1       0.74944    -0.00292   0.16069   1.00
C6       0.78125    -0.02012   0.14532   1.00
C6       0.75148    0.03540    0.15227   1.00
C6       0.80410    0.00757    0.12716   1.00
C6       0.78517    0.04289    0.13160   1.00
H3       0.78769    -0.05099   0.14735   1.00
H3       0.73005    0.05691    0.16101   1.00
H3       0.83148    0.00259    0.11231   1.00
H3       0.79486    0.07097    0.12099   1.00
C4       0.75009    0.24995    0.02085   1.00
C4       0.74991    0.25005    -0.02085   1.00
C3       0.75846    0.21619    0.04292   1.00
C3       0.78155    0.26548    -0.04225   1.00
C3       0.74173    0.28443    0.04184   1.00
C3a      0.71813    0.23413    -0.04263   1.00
C2       0.74933    0.25135    0.10517   1.00
C2       0.75091    0.24885    -0.10517   1.00
C3       0.75805    0.21694    0.08434   1.00
C3       0.78199    0.26485    -0.08359   1.00
C3       0.74119    0.28506    0.08320   1.00
C3       0.71920    0.23367    -0.08415   1.00
H1       0.76529    0.18915    0.02808   1.00
H1       0.80622    0.27785    -0.02685   1.00
H1       0.76454    0.19048    0.10032   1.00
H1       0.80684    0.27688    -0.09895   1.00
H1       0.73411    0.31194    0.09821   1.00
H1       0.69493    0.22167    -0.10043   1.00
C5       0.68226    0.21814    -0.02239   1.00
H1       0.73454    0.31080    0.02599   1.00
H2       0.66249    0.20352    -0.04354   1.00
H2       0.69122    0.19546    -0.00103   1.00
N1       0.66069    0.24944    -0.00292   1.00
C6       0.64532    0.28125    -0.02012   1.00
C6       0.65227    0.25148    0.03540   1.00
C6       0.62716    0.30410    0.00757   1.00
C6       0.63160    0.28517    0.04289   1.00
H3       0.64735    0.28769    -0.05099   1.00
H3       0.66101    0.23005    0.05691   1.00
H3       0.61231    0.33148    0.00259   1.00
H3       0.62099    0.29486    0.07097   1.00
