data_IRMOF10_SG202_Ligand5_label_e.

_audit_creation_method             'generated by an auxiliary program of Tobunporous'

_symmetry_space_group_name_H-M     'P 1'
_symmetry_Int_Tables_number        1
_symmetry_cell_setting             triclinic

_cell_length_a                    34.2800
_cell_length_b                    34.2800
_cell_length_c                    34.2800
_cell_angle_alpha                 90.0000
_cell_angle_beta                  90.0000
_cell_angle_gamma                 90.0000

loop_
_atom_site_label
_atom_site_fract_x
_atom_site_fract_y
_atom_site_fract_z
_atom_site_occupancy
O1       0.75000    0.75000    0.75000   1.00
Zn1      0.71720    0.78280    0.78280   1.00
Zn1      0.78280    0.71720    0.78280   1.00
Zn1      0.78280    0.78280    0.71720   1.00
Zn1      0.71720    0.71720    0.71720   1.00
O2       0.72650    0.77350    0.83820   1.00
O2       0.72650    0.83820    0.77350   1.00
O2       0.66180    0.77350    0.77350   1.00
O2       0.77350    0.72650    0.83820   1.00
O2       0.83820    0.72650    0.77350   1.00
O2       0.77350    0.66180    0.77350   1.00
O2       0.77350    0.83820    0.72650   1.00
O2       0.83820    0.77350    0.72650   1.00
O2       0.77350    0.77350    0.66180   1.00
O2       0.66180    0.72650    0.72650   1.00
O2       0.72650    0.66180    0.72650   1.00
O2       0.72650    0.72650    0.66180   1.00
C1       0.75000    0.75000    0.85520   1.00
C1       0.75000    0.85520    0.75000   1.00
C1       0.64480    0.75000    0.75000   1.00
C1       0.85520    0.75000    0.75000   1.00
C1       0.75000    0.64480    0.75000   1.00
C1       0.75000    0.75000    0.64480   1.00
O1       0.25000    0.25000    0.75000   1.00
Zn1      0.21720    0.28280    0.78280   1.00
Zn1      0.28280    0.21720    0.78280   1.00
Zn1      0.28280    0.28280    0.71720   1.00
Zn1      0.21720    0.21720    0.71720   1.00
O2       0.22650    0.27350    0.83820   1.00
O2       0.22650    0.33820    0.77350   1.00
O2       0.16180    0.27350    0.77350   1.00
O2       0.27350    0.22650    0.83820   1.00
O2       0.33820    0.22650    0.77350   1.00
O2       0.27350    0.16180    0.77350   1.00
O2       0.27350    0.33820    0.72650   1.00
O2       0.33820    0.27350    0.72650   1.00
O2       0.27350    0.27350    0.66180   1.00
O2       0.16180    0.22650    0.72650   1.00
O2       0.22650    0.16180    0.72650   1.00
O2       0.22650    0.22650    0.66180   1.00
C1       0.25000    0.25000    0.85520   1.00
C1       0.25000    0.35520    0.75000   1.00
C1       0.14480    0.25000    0.75000   1.00
C1       0.35520    0.25000    0.75000   1.00
C1       0.25000    0.14480    0.75000   1.00
C1       0.25000    0.25000    0.64480   1.00
O1       0.25000    0.75000    0.25000   1.00
Zn1      0.21720    0.78280    0.28280   1.00
Zn1      0.28280    0.71720    0.28280   1.00
Zn1      0.28280    0.78280    0.21720   1.00
Zn1      0.21720    0.71720    0.21720   1.00
O2       0.22650    0.77350    0.33820   1.00
O2       0.22650    0.83820    0.27350   1.00
O2       0.16180    0.77350    0.27350   1.00
O2       0.27350    0.72650    0.33820   1.00
O2       0.33820    0.72650    0.27350   1.00
O2       0.27350    0.66180    0.27350   1.00
O2       0.27350    0.83820    0.22650   1.00
O2       0.33820    0.77350    0.22650   1.00
O2       0.27350    0.77350    0.16180   1.00
O2       0.16180    0.72650    0.22650   1.00
O2       0.22650    0.66180    0.22650   1.00
O2       0.22650    0.72650    0.16180   1.00
C1       0.25000    0.75000    0.35520   1.00
C1       0.25000    0.85520    0.25000   1.00
C1       0.14480    0.75000    0.25000   1.00
C1       0.35520    0.75000    0.25000   1.00
C1       0.25000    0.64480    0.25000   1.00
C1       0.25000    0.75000    0.14480   1.00
O1       0.75000    0.25000    0.25000   1.00
Zn1      0.71720    0.28280    0.28280   1.00
Zn1      0.78280    0.21720    0.28280   1.00
Zn1      0.78280    0.28280    0.21720   1.00
Zn1      0.71720    0.21720    0.21720   1.00
O2       0.72650    0.27350    0.33820   1.00
O2       0.72650    0.33820    0.27350   1.00
O2       0.66180    0.27350    0.27350   1.00
O2       0.77350    0.22650    0.33820   1.00
O2       0.83820    0.22650    0.27350   1.00
O2       0.77350    0.16180    0.27350   1.00
O2       0.77350    0.33820    0.22650   1.00
O2       0.83820    0.27350    0.22650   1.00
O2       0.77350    0.27350    0.16180   1.00
O2       0.66180    0.22650    0.22650   1.00
O2       0.72650    0.16180    0.22650   1.00
O2       0.72650    0.22650    0.16180   1.00
C1       0.75000    0.25000    0.35520   1.00
C1       0.75000    0.35520    0.25000   1.00
C1       0.64480    0.25000    0.25000   1.00
C1       0.85520    0.25000    0.25000   1.00
C1       0.75000    0.14480    0.25000   1.00
C1       0.75000    0.25000    0.14480   1.00
O1       0.25000    0.25000    0.25000   1.00
Zn1      0.28280    0.21720    0.21720   1.00
Zn1      0.21720    0.28280    0.21720   1.00
Zn1      0.21720    0.21720    0.28280   1.00
Zn1      0.28280    0.28280    0.28280   1.00
O2       0.27350    0.22650    0.16180   1.00
O2       0.27350    0.16180    0.22650   1.00
O2       0.33820    0.22650    0.22650   1.00
O2       0.22650    0.27350    0.16180   1.00
O2       0.16180    0.27350    0.22650   1.00
O2       0.22650    0.33820    0.22650   1.00
O2       0.22650    0.16180    0.27350   1.00
O2       0.16180    0.22650    0.27350   1.00
O2       0.22650    0.22650    0.33820   1.00
O2       0.33820    0.27350    0.27350   1.00
O2       0.27350    0.33820    0.27350   1.00
O2       0.27350    0.27350    0.33820   1.00
C1       0.25000    0.25000    0.14480   1.00
C1       0.25000    0.14480    0.25000   1.00
C1       0.35520    0.25000    0.25000   1.00
C1       0.14480    0.25000    0.25000   1.00
C1       0.25000    0.35520    0.25000   1.00
C1       0.25000    0.25000    0.35520   1.00
O1       0.75000    0.75000    0.25000   1.00
Zn1      0.78280    0.71720    0.21720   1.00
Zn1      0.71720    0.78280    0.21720   1.00
Zn1      0.71720    0.71720    0.28280   1.00
Zn1      0.78280    0.78280    0.28280   1.00
O2       0.77350    0.72650    0.16180   1.00
O2       0.77350    0.66180    0.22650   1.00
O2       0.83820    0.72650    0.22650   1.00
O2       0.72650    0.77350    0.16180   1.00
O2       0.66180    0.77350    0.22650   1.00
O2       0.72650    0.83820    0.22650   1.00
O2       0.72650    0.66180    0.27350   1.00
O2       0.66180    0.72650    0.27350   1.00
O2       0.72650    0.72650    0.33820   1.00
O2       0.83820    0.77350    0.27350   1.00
O2       0.77350    0.83820    0.27350   1.00
O2       0.77350    0.77350    0.33820   1.00
C1       0.75000    0.75000    0.14480   1.00
C1       0.75000    0.64480    0.25000   1.00
C1       0.85520    0.75000    0.25000   1.00
C1       0.64480    0.75000    0.25000   1.00
C1       0.75000    0.85520    0.25000   1.00
C1       0.75000    0.75000    0.35520   1.00
O1       0.75000    0.25000    0.75000   1.00
Zn1      0.78280    0.21720    0.71720   1.00
Zn1      0.71720    0.28280    0.71720   1.00
Zn1      0.71720    0.21720    0.78280   1.00
Zn1      0.78280    0.28280    0.78280   1.00
O2       0.77350    0.22650    0.66180   1.00
O2       0.77350    0.16180    0.72650   1.00
O2       0.83820    0.22650    0.72650   1.00
O2       0.72650    0.27350    0.66180   1.00
O2       0.66180    0.27350    0.72650   1.00
O2       0.72650    0.33820    0.72650   1.00
O2       0.72650    0.16180    0.77350   1.00
O2       0.66180    0.22650    0.77350   1.00
O2       0.72650    0.22650    0.83820   1.00
O2       0.83820    0.27350    0.77350   1.00
O2       0.77350    0.33820    0.77350   1.00
O2       0.77350    0.27350    0.83820   1.00
C1       0.75000    0.25000    0.64480   1.00
C1       0.75000    0.14480    0.75000   1.00
C1       0.85520    0.25000    0.75000   1.00
C1       0.64480    0.25000    0.75000   1.00
C1       0.75000    0.35520    0.75000   1.00
C1       0.75000    0.25000    0.85520   1.00
O1       0.25000    0.75000    0.75000   1.00
Zn1      0.28280    0.71720    0.71720   1.00
Zn1      0.21720    0.78280    0.71720   1.00
Zn1      0.21720    0.71720    0.78280   1.00
Zn1      0.28280    0.78280    0.78280   1.00
O2       0.27350    0.72650    0.66180   1.00
O2       0.27350    0.66180    0.72650   1.00
O2       0.33820    0.72650    0.72650   1.00
O2       0.22650    0.77350    0.66180   1.00
O2       0.16180    0.77350    0.72650   1.00
O2       0.22650    0.83820    0.72650   1.00
O2       0.22650    0.66180    0.77350   1.00
O2       0.16180    0.72650    0.77350   1.00
O2       0.22650    0.72650    0.83820   1.00
O2       0.33820    0.77350    0.77350   1.00
O2       0.27350    0.83820    0.77350   1.00
O2       0.27350    0.77350    0.83820   1.00
C1       0.25000    0.75000    0.64480   1.00
C1       0.25000    0.64480    0.75000   1.00
C1       0.35520    0.75000    0.75000   1.00
C1       0.14480    0.75000    0.75000   1.00
C1       0.25000    0.85520    0.75000   1.00
C1       0.25000    0.75000    0.85520   1.00
C5       0.79850    0.86739    1.13227   1.00
H2       0.76995    0.86851    1.14755   1.00
H2       0.79813    0.89184    1.11099   1.00
C5       0.83185    0.87305    1.16219   1.00
H2       0.83610    0.90455    1.16890   1.00
H2       0.85956    0.86089    1.15040   1.00
O_3      0.81905    0.73455    0.98000   1.00
C4       0.74956    0.74996    1.02100   1.00
C3c      0.75656    0.78418    1.04243   1.00
H1       0.76199    0.81129    1.02725   1.00
C3d      0.74199    0.71506    1.04135   1.00
C3       0.75723    0.78395    1.08354   1.00
O2       0.75951    0.81929    1.10248   1.00
C3       0.74337    0.71457    1.08227   1.00
H1       0.73876    0.68684    1.09657   1.00
C2       0.75083    0.74882    1.10439   1.00
C5       0.82820    0.69440    0.97879   1.00
H2       0.83247    0.68367    0.94838   1.00
H2       0.80472    0.67660    0.99266   1.00
C5       0.86600    0.68856    1.00122   1.00
H2       0.86208    0.70029    1.03129   1.00
H2       0.88930    0.70617    0.98691   1.00
C5       0.87740    0.64530    1.00254   1.00
H2       0.88109    0.63334    0.97260   1.00
H2       0.85478    0.62790    1.01803   1.00
H2       0.90553    0.64171    1.01830   1.00
C5       0.69841    0.67489    1.01105   1.00
C5       0.79894    0.82826    1.11070   1.00
H2       0.68850    0.69830    0.99088   1.00
H2       0.67891    0.67462    1.03712   1.00
H2       0.81586    0.83083    1.08300   1.00
H2       0.81342    0.80539    1.12895   1.00
H2       0.82490    0.85848    1.19055   1.00
H2       0.65508    0.65190    0.94250   1.00
H2       0.63115    0.63769    0.98766   1.00
C2       0.75149    0.74790    0.89605   1.00
C3       0.71679    0.75774    0.91597   1.00
O2       0.68143    0.75719    0.89674   1.00
C3       0.78556    0.74077    0.91826   1.00
H1       0.81282    0.73417    0.90385   1.00
C3a      0.71663    0.75922    0.95713   1.00
H1       0.68933    0.76460    0.97202   1.00
C3b      0.78500    0.74105    0.95922   1.00
C4       0.75035    0.75023    0.97900   1.00
O_3      0.73786    0.68004    1.02167   1.00
C5       0.66981    0.79552    0.88720   1.00
H2       0.66673    0.81394    0.91391   1.00
C5       0.63026    0.79248    0.86666   1.00
H2       0.69132    0.80959    0.86726   1.00
H2       0.60721    0.78865    0.88923   1.00
H2       0.63055    0.76519    0.84899   1.00
C5       0.62119    0.82809    0.84069   1.00
H2       0.62407    0.85529    0.85811   1.00
H2       0.59096    0.82636    0.82891   1.00
H2       0.64119    0.82946    0.81494   1.00
C5       0.69517    0.63579    0.99020   1.00
H2       0.69852    0.61209    1.01218   1.00
H2       0.72015    0.63316    0.96955   1.00
C5       0.65631    0.63170    0.96803   1.00
H2       0.65320    0.60149    0.95666   1.00
C5       0.86739    1.13227    0.79850   1.00
H2       0.86851    1.14755    0.76995   1.00
H2       0.89184    1.11099    0.79813   1.00
C5       0.87305    1.16219    0.83185   1.00
H2       0.90455    1.16890    0.83610   1.00
H2       0.86089    1.15040    0.85956   1.00
O_3      0.73455    0.98000    0.81905   1.00
C4       0.74996    1.02100    0.74956   1.00
C3c      0.78418    1.04243    0.75656   1.00
H1       0.81129    1.02725    0.76199   1.00
C3d      0.71506    1.04135    0.74199   1.00
C3       0.78395    1.08354    0.75723   1.00
O2       0.81929    1.10248    0.75951   1.00
C3       0.71457    1.08227    0.74337   1.00
H1       0.68684    1.09657    0.73876   1.00
C2       0.74882    1.10439    0.75083   1.00
C5       0.69440    0.97879    0.82820   1.00
H2       0.68367    0.94838    0.83247   1.00
H2       0.67660    0.99266    0.80472   1.00
C5       0.68856    1.00122    0.86600   1.00
H2       0.70029    1.03129    0.86208   1.00
H2       0.70617    0.98691    0.88930   1.00
C5       0.64530    1.00254    0.87740   1.00
H2       0.63334    0.97260    0.88109   1.00
H2       0.62790    1.01803    0.85478   1.00
H2       0.64171    1.01830    0.90553   1.00
C5       0.67489    1.01105    0.69841   1.00
C5       0.82826    1.11070    0.79894   1.00
H2       0.69830    0.99088    0.68850   1.00
H2       0.67462    1.03712    0.67891   1.00
H2       0.83083    1.08300    0.81586   1.00
H2       0.80539    1.12895    0.81342   1.00
H2       0.85848    1.19055    0.82490   1.00
H2       0.65190    0.94250    0.65508   1.00
H2       0.63769    0.98766    0.63115   1.00
C2       0.74790    0.89605    0.75149   1.00
C3       0.75774    0.91597    0.71679   1.00
O2       0.75719    0.89674    0.68143   1.00
C3       0.74077    0.91826    0.78556   1.00
H1       0.73417    0.90385    0.81282   1.00
C3a      0.75922    0.95713    0.71663   1.00
H1       0.76460    0.97202    0.68933   1.00
C3b      0.74105    0.95922    0.78500   1.00
C4       0.75023    0.97900    0.75035   1.00
O_3      0.68004    1.02167    0.73786   1.00
C5       0.79552    0.88720    0.66981   1.00
H2       0.81394    0.91391    0.66673   1.00
C5       0.79248    0.86666    0.63026   1.00
H2       0.80959    0.86726    0.69132   1.00
H2       0.78865    0.88923    0.60721   1.00
H2       0.76519    0.84899    0.63055   1.00
C5       0.82809    0.84069    0.62119   1.00
H2       0.85529    0.85811    0.62407   1.00
H2       0.82636    0.82891    0.59096   1.00
H2       0.82946    0.81494    0.64119   1.00
C5       0.63579    0.99020    0.69517   1.00
H2       0.61209    1.01218    0.69852   1.00
H2       0.63316    0.96955    0.72015   1.00
C5       0.63170    0.96803    0.65631   1.00
H2       0.60149    0.95666    0.65320   1.00
C5       0.36773    0.79850    0.63261   1.00
H2       0.35245    0.76995    0.63149   1.00
H2       0.38901    0.79813    0.60816   1.00
C5       0.33781    0.83185    0.62695   1.00
H2       0.33110    0.83610    0.59545   1.00
H2       0.34960    0.85956    0.63911   1.00
O_3      0.52000    0.81905    0.76545   1.00
C4       0.47900    0.74956    0.75004   1.00
C3c      0.45757    0.75656    0.71582   1.00
H1       0.47275    0.76199    0.68871   1.00
C3d      0.45865    0.74199    0.78494   1.00
C3       0.41646    0.75723    0.71605   1.00
O2       0.39752    0.75951    0.68071   1.00
C3       0.41773    0.74337    0.78543   1.00
H1       0.40343    0.73876    0.81316   1.00
C2       0.39561    0.75083    0.75118   1.00
C5       0.52121    0.82820    0.80560   1.00
H2       0.55162    0.83247    0.81633   1.00
H2       0.50734    0.80472    0.82340   1.00
C5       0.49878    0.86600    0.81144   1.00
H2       0.46871    0.86208    0.79971   1.00
H2       0.51309    0.88930    0.79383   1.00
C5       0.49746    0.87740    0.85470   1.00
H2       0.52740    0.88109    0.86666   1.00
H2       0.48197    0.85478    0.87210   1.00
H2       0.48170    0.90553    0.85829   1.00
C5       0.48895    0.69841    0.82511   1.00
C5       0.38930    0.79894    0.67174   1.00
H2       0.50912    0.68850    0.80170   1.00
H2       0.46288    0.67891    0.82538   1.00
H2       0.41700    0.81586    0.66917   1.00
H2       0.37105    0.81342    0.69461   1.00
H2       0.30945    0.82490    0.64152   1.00
H2       0.55750    0.65508    0.84810   1.00
H2       0.51234    0.63115    0.86231   1.00
C2       0.60395    0.75149    0.75210   1.00
C3       0.58403    0.71679    0.74226   1.00
O2       0.60326    0.68143    0.74281   1.00
C3       0.58174    0.78556    0.75923   1.00
H1       0.59615    0.81282    0.76583   1.00
C3a      0.54287    0.71663    0.74078   1.00
H1       0.52798    0.68933    0.73540   1.00
C3b      0.54078    0.78500    0.75895   1.00
C4       0.52100    0.75035    0.74977   1.00
O_3      0.47833    0.73786    0.81996   1.00
C5       0.61280    0.66981    0.70448   1.00
H2       0.58609    0.66673    0.68606   1.00
C5       0.63334    0.63026    0.70752   1.00
H2       0.63274    0.69132    0.69041   1.00
H2       0.61077    0.60721    0.71135   1.00
H2       0.65101    0.63055    0.73481   1.00
C5       0.65931    0.62119    0.67191   1.00
H2       0.64189    0.62407    0.64471   1.00
H2       0.67109    0.59096    0.67364   1.00
H2       0.68506    0.64119    0.67054   1.00
C5       0.50980    0.69517    0.86421   1.00
H2       0.48782    0.69852    0.88791   1.00
H2       0.53045    0.72015    0.86684   1.00
C5       0.53197    0.65631    0.86830   1.00
H2       0.54334    0.65320    0.89851   1.00
C5       1.13227    0.79850    0.86739   1.00
H2       1.14755    0.76995    0.86851   1.00
H2       1.11099    0.79813    0.89184   1.00
C5       1.16219    0.83185    0.87305   1.00
H2       1.16890    0.83610    0.90455   1.00
H2       1.15040    0.85956    0.86089   1.00
O_3      0.98000    0.81905    0.73455   1.00
C4       1.02100    0.74956    0.74996   1.00
C3c      1.04243    0.75656    0.78418   1.00
H1       1.02725    0.76199    0.81129   1.00
C3d      1.04135    0.74199    0.71506   1.00
C3       1.08354    0.75723    0.78395   1.00
O2       1.10248    0.75951    0.81929   1.00
C3       1.08227    0.74337    0.71457   1.00
H1       1.09657    0.73876    0.68684   1.00
C2       1.10439    0.75083    0.74882   1.00
C5       0.97879    0.82820    0.69440   1.00
H2       0.94838    0.83247    0.68367   1.00
H2       0.99266    0.80472    0.67660   1.00
C5       1.00122    0.86600    0.68856   1.00
H2       1.03129    0.86208    0.70029   1.00
H2       0.98691    0.88930    0.70617   1.00
C5       1.00254    0.87740    0.64530   1.00
H2       0.97260    0.88109    0.63334   1.00
H2       1.01803    0.85478    0.62790   1.00
H2       1.01830    0.90553    0.64171   1.00
C5       1.01105    0.69841    0.67489   1.00
C5       1.11070    0.79894    0.82826   1.00
H2       0.99088    0.68850    0.69830   1.00
H2       1.03712    0.67891    0.67462   1.00
H2       1.08300    0.81586    0.83083   1.00
H2       1.12895    0.81342    0.80539   1.00
H2       1.19055    0.82490    0.85848   1.00
H2       0.94250    0.65508    0.65190   1.00
H2       0.98766    0.63115    0.63769   1.00
C2       0.89605    0.75149    0.74790   1.00
C3       0.91597    0.71679    0.75774   1.00
O2       0.89674    0.68143    0.75719   1.00
C3       0.91826    0.78556    0.74077   1.00
H1       0.90385    0.81282    0.73417   1.00
C3a      0.95713    0.71663    0.75922   1.00
H1       0.97202    0.68933    0.76460   1.00
C3b      0.95922    0.78500    0.74105   1.00
C4       0.97900    0.75035    0.75023   1.00
O_3      1.02167    0.73786    0.68004   1.00
C5       0.88720    0.66981    0.79552   1.00
H2       0.91391    0.66673    0.81394   1.00
C5       0.86666    0.63026    0.79248   1.00
H2       0.86726    0.69132    0.80959   1.00
H2       0.88923    0.60721    0.78865   1.00
H2       0.84899    0.63055    0.76519   1.00
C5       0.84069    0.62119    0.82809   1.00
H2       0.85811    0.62407    0.85529   1.00
H2       0.82891    0.59096    0.82636   1.00
H2       0.81494    0.64119    0.82946   1.00
C5       0.99020    0.69517    0.63579   1.00
H2       1.01218    0.69852    0.61209   1.00
H2       0.96955    0.72015    0.63316   1.00
C5       0.96803    0.65631    0.63170   1.00
H2       0.95666    0.65320    0.60149   1.00
C5       0.63261    0.36773    0.79850   1.00
H2       0.63149    0.35245    0.76995   1.00
H2       0.60816    0.38901    0.79813   1.00
C5       0.62695    0.33781    0.83185   1.00
H2       0.59545    0.33110    0.83610   1.00
H2       0.63911    0.34960    0.85956   1.00
O_3      0.76545    0.52000    0.81905   1.00
C4       0.75004    0.47900    0.74956   1.00
C3c      0.71582    0.45757    0.75656   1.00
H1       0.68871    0.47275    0.76199   1.00
C3d      0.78494    0.45865    0.74199   1.00
C3       0.71605    0.41646    0.75723   1.00
O2       0.68071    0.39752    0.75951   1.00
C3       0.78543    0.41773    0.74337   1.00
H1       0.81316    0.40343    0.73876   1.00
C2       0.75118    0.39561    0.75083   1.00
C5       0.80560    0.52121    0.82820   1.00
H2       0.81633    0.55162    0.83247   1.00
H2       0.82340    0.50734    0.80472   1.00
C5       0.81144    0.49878    0.86600   1.00
H2       0.79971    0.46871    0.86208   1.00
H2       0.79383    0.51309    0.88930   1.00
C5       0.85470    0.49746    0.87740   1.00
H2       0.86666    0.52740    0.88109   1.00
H2       0.87210    0.48197    0.85478   1.00
H2       0.85829    0.48170    0.90553   1.00
C5       0.82511    0.48895    0.69841   1.00
C5       0.67174    0.38930    0.79894   1.00
H2       0.80170    0.50912    0.68850   1.00
H2       0.82538    0.46288    0.67891   1.00
H2       0.66917    0.41700    0.81586   1.00
H2       0.69461    0.37105    0.81342   1.00
H2       0.64152    0.30945    0.82490   1.00
H2       0.84810    0.55750    0.65508   1.00
H2       0.86231    0.51234    0.63115   1.00
C2       0.75210    0.60395    0.75149   1.00
C3       0.74226    0.58403    0.71679   1.00
O2       0.74281    0.60326    0.68143   1.00
C3       0.75923    0.58174    0.78556   1.00
H1       0.76583    0.59615    0.81282   1.00
C3a      0.74078    0.54287    0.71663   1.00
H1       0.73540    0.52798    0.68933   1.00
C3b      0.75895    0.54078    0.78500   1.00
C4       0.74977    0.52100    0.75035   1.00
O_3      0.81996    0.47833    0.73786   1.00
C5       0.70448    0.61280    0.66981   1.00
H2       0.68606    0.58609    0.66673   1.00
C5       0.70752    0.63334    0.63026   1.00
H2       0.69041    0.63274    0.69132   1.00
H2       0.71135    0.61077    0.60721   1.00
H2       0.73481    0.65101    0.63055   1.00
C5       0.67191    0.65931    0.62119   1.00
H2       0.64471    0.64189    0.62407   1.00
H2       0.67364    0.67109    0.59096   1.00
H2       0.67054    0.68506    0.64119   1.00
C5       0.86421    0.50980    0.69517   1.00
H2       0.88791    0.48782    0.69852   1.00
H2       0.86684    0.53045    0.72015   1.00
C5       0.86830    0.53197    0.65631   1.00
H2       0.89851    0.54334    0.65320   1.00
C5       0.79850    0.63261    0.36773   1.00
H2       0.76995    0.63149    0.35245   1.00
H2       0.79813    0.60816    0.38901   1.00
C5       0.83185    0.62695    0.33781   1.00
H2       0.83610    0.59545    0.33110   1.00
H2       0.85956    0.63911    0.34960   1.00
O_3      0.81905    0.76545    0.52000   1.00
C4       0.74956    0.75004    0.47900   1.00
C3c      0.75656    0.71582    0.45757   1.00
H1       0.76199    0.68871    0.47275   1.00
C3d      0.74199    0.78494    0.45865   1.00
C3       0.75723    0.71605    0.41646   1.00
O2       0.75951    0.68071    0.39752   1.00
C3       0.74337    0.78543    0.41773   1.00
H1       0.73876    0.81316    0.40343   1.00
C2       0.75083    0.75118    0.39561   1.00
C5       0.82820    0.80560    0.52121   1.00
H2       0.83247    0.81633    0.55162   1.00
H2       0.80472    0.82340    0.50734   1.00
C5       0.86600    0.81144    0.49878   1.00
H2       0.86208    0.79971    0.46871   1.00
H2       0.88930    0.79383    0.51309   1.00
C5       0.87740    0.85470    0.49746   1.00
H2       0.88109    0.86666    0.52740   1.00
H2       0.85478    0.87210    0.48197   1.00
H2       0.90553    0.85829    0.48170   1.00
C5       0.69841    0.82511    0.48895   1.00
C5       0.79894    0.67174    0.38930   1.00
H2       0.68850    0.80170    0.50912   1.00
H2       0.67891    0.82538    0.46288   1.00
H2       0.81586    0.66917    0.41700   1.00
H2       0.81342    0.69461    0.37105   1.00
H2       0.82490    0.64152    0.30945   1.00
H2       0.65508    0.84810    0.55750   1.00
H2       0.63115    0.86231    0.51234   1.00
C2       0.75149    0.75210    0.60395   1.00
C3       0.71679    0.74226    0.58403   1.00
O2       0.68143    0.74281    0.60326   1.00
C3       0.78556    0.75923    0.58174   1.00
H1       0.81282    0.76583    0.59615   1.00
C3a      0.71663    0.74078    0.54287   1.00
H1       0.68933    0.73540    0.52798   1.00
C3b      0.78500    0.75895    0.54078   1.00
C4       0.75035    0.74977    0.52100   1.00
O_3      0.73786    0.81996    0.47833   1.00
C5       0.66981    0.70448    0.61280   1.00
H2       0.66673    0.68606    0.58609   1.00
C5       0.63026    0.70752    0.63334   1.00
H2       0.69132    0.69041    0.63274   1.00
H2       0.60721    0.71135    0.61077   1.00
H2       0.63055    0.73481    0.65101   1.00
C5       0.62119    0.67191    0.65931   1.00
H2       0.62407    0.64471    0.64189   1.00
H2       0.59096    0.67364    0.67109   1.00
H2       0.64119    0.67054    0.68506   1.00
C5       0.69517    0.86421    0.50980   1.00
H2       0.69852    0.88791    0.48782   1.00
H2       0.72015    0.86684    0.53045   1.00
C5       0.65631    0.86830    0.53197   1.00
H2       0.65320    0.89851    0.54334   1.00
C5       0.29850    0.36739    1.13227   1.00
H2       0.26995    0.36851    1.14755   1.00
H2       0.29813    0.39184    1.11099   1.00
C5       0.33185    0.37305    1.16219   1.00
H2       0.33610    0.40455    1.16890   1.00
H2       0.35956    0.36089    1.15040   1.00
O_3      0.31905    0.23455    0.98000   1.00
C4       0.24956    0.24996    1.02100   1.00
C3c      0.25656    0.28418    1.04243   1.00
H1       0.26199    0.31129    1.02725   1.00
C3d      0.24199    0.21506    1.04135   1.00
C3       0.25723    0.28395    1.08354   1.00
O2       0.25951    0.31929    1.10248   1.00
C3       0.24337    0.21457    1.08227   1.00
H1       0.23876    0.18684    1.09657   1.00
C2       0.25083    0.24882    1.10439   1.00
C5       0.32820    0.19440    0.97879   1.00
H2       0.33247    0.18367    0.94838   1.00
H2       0.30472    0.17660    0.99266   1.00
C5       0.36600    0.18856    1.00122   1.00
H2       0.36208    0.20029    1.03129   1.00
H2       0.38930    0.20617    0.98691   1.00
C5       0.37740    0.14530    1.00254   1.00
H2       0.38109    0.13334    0.97260   1.00
H2       0.35478    0.12790    1.01803   1.00
H2       0.40553    0.14171    1.01830   1.00
C5       0.19841    0.17489    1.01105   1.00
C5       0.29894    0.32826    1.11070   1.00
H2       0.18850    0.19830    0.99088   1.00
H2       0.17891    0.17462    1.03712   1.00
H2       0.31586    0.33083    1.08300   1.00
H2       0.31342    0.30539    1.12895   1.00
H2       0.32490    0.35848    1.19055   1.00
H2       0.15508    0.15190    0.94250   1.00
H2       0.13115    0.13769    0.98766   1.00
C2       0.25149    0.24790    0.89605   1.00
C3       0.21679    0.25774    0.91597   1.00
O2       0.18143    0.25719    0.89674   1.00
C3       0.28556    0.24077    0.91826   1.00
H1       0.31282    0.23417    0.90385   1.00
C3a      0.21663    0.25922    0.95713   1.00
H1       0.18933    0.26460    0.97202   1.00
C3b      0.28500    0.24105    0.95922   1.00
C4       0.25035    0.25023    0.97900   1.00
O_3      0.23786    0.18004    1.02167   1.00
C5       0.16981    0.29552    0.88720   1.00
H2       0.16673    0.31394    0.91391   1.00
C5       0.13026    0.29248    0.86666   1.00
H2       0.19132    0.30959    0.86726   1.00
H2       0.10721    0.28865    0.88923   1.00
H2       0.13055    0.26519    0.84899   1.00
C5       0.12119    0.32809    0.84069   1.00
H2       0.12407    0.35529    0.85811   1.00
H2       0.09096    0.32636    0.82891   1.00
H2       0.14119    0.32946    0.81494   1.00
C5       0.19517    0.13579    0.99020   1.00
H2       0.19852    0.11209    1.01218   1.00
H2       0.22015    0.13316    0.96955   1.00
C5       0.15631    0.13170    0.96803   1.00
H2       0.15320    0.10149    0.95666   1.00
C5       0.36739    0.63227    0.79850   1.00
H2       0.36851    0.64755    0.76995   1.00
H2       0.39184    0.61099    0.79813   1.00
C5       0.37305    0.66219    0.83185   1.00
H2       0.40455    0.66890    0.83610   1.00
H2       0.36089    0.65040    0.85956   1.00
O_3      0.23455    0.48000    0.81905   1.00
C4       0.24996    0.52100    0.74956   1.00
C3c      0.28418    0.54243    0.75656   1.00
H1       0.31129    0.52725    0.76199   1.00
C3d      0.21506    0.54135    0.74199   1.00
C3       0.28395    0.58354    0.75723   1.00
O2       0.31929    0.60248    0.75951   1.00
C3       0.21457    0.58227    0.74337   1.00
H1       0.18684    0.59657    0.73876   1.00
C2       0.24882    0.60439    0.75083   1.00
C5       0.19440    0.47879    0.82820   1.00
H2       0.18367    0.44838    0.83247   1.00
H2       0.17660    0.49266    0.80472   1.00
C5       0.18856    0.50122    0.86600   1.00
H2       0.20029    0.53129    0.86208   1.00
H2       0.20617    0.48691    0.88930   1.00
C5       0.14530    0.50254    0.87740   1.00
H2       0.13334    0.47260    0.88109   1.00
H2       0.12790    0.51803    0.85478   1.00
H2       0.14171    0.51830    0.90553   1.00
C5       0.17489    0.51105    0.69841   1.00
C5       0.32826    0.61070    0.79894   1.00
H2       0.19830    0.49088    0.68850   1.00
H2       0.17462    0.53712    0.67891   1.00
H2       0.33083    0.58300    0.81586   1.00
H2       0.30539    0.62895    0.81342   1.00
H2       0.35848    0.69055    0.82490   1.00
H2       0.15190    0.44250    0.65508   1.00
H2       0.13769    0.48766    0.63115   1.00
C2       0.24790    0.39605    0.75149   1.00
C3       0.25774    0.41597    0.71679   1.00
O2       0.25719    0.39674    0.68143   1.00
C3       0.24077    0.41826    0.78556   1.00
H1       0.23417    0.40385    0.81282   1.00
C3a      0.25922    0.45713    0.71663   1.00
H1       0.26460    0.47202    0.68933   1.00
C3b      0.24105    0.45922    0.78500   1.00
C4       0.25023    0.47900    0.75035   1.00
O_3      0.18004    0.52167    0.73786   1.00
C5       0.29552    0.38720    0.66981   1.00
H2       0.31394    0.41391    0.66673   1.00
C5       0.29248    0.36666    0.63026   1.00
H2       0.30959    0.36726    0.69132   1.00
H2       0.28865    0.38923    0.60721   1.00
H2       0.26519    0.34899    0.63055   1.00
C5       0.32809    0.34069    0.62119   1.00
H2       0.35529    0.35811    0.62407   1.00
H2       0.32636    0.32891    0.59096   1.00
H2       0.32946    0.31494    0.64119   1.00
C5       0.13579    0.49020    0.69517   1.00
H2       0.11209    0.51218    0.69852   1.00
H2       0.13316    0.46955    0.72015   1.00
C5       0.13170    0.46803    0.65631   1.00
H2       0.10149    0.45666    0.65320   1.00
C5       -0.13227   0.29850    0.63261   1.00
H2       -0.14755   0.26995    0.63149   1.00
H2       -0.11099   0.29813    0.60816   1.00
C5       -0.16219   0.33185    0.62695   1.00
H2       -0.16890   0.33610    0.59545   1.00
H2       -0.15040   0.35956    0.63911   1.00
O_3      0.02000    0.31905    0.76545   1.00
C4       -0.02100   0.24956    0.75004   1.00
C3c      -0.04243   0.25656    0.71582   1.00
H1       -0.02725   0.26199    0.68871   1.00
C3d      -0.04135   0.24199    0.78494   1.00
C3       -0.08354   0.25723    0.71605   1.00
O2       -0.10248   0.25951    0.68071   1.00
C3       -0.08227   0.24337    0.78543   1.00
H1       -0.09657   0.23876    0.81316   1.00
C2       -0.10439   0.25083    0.75118   1.00
C5       0.02121    0.32820    0.80560   1.00
H2       0.05162    0.33247    0.81633   1.00
H2       0.00734    0.30472    0.82340   1.00
C5       -0.00122   0.36600    0.81144   1.00
H2       -0.03129   0.36208    0.79971   1.00
H2       0.01309    0.38930    0.79383   1.00
C5       -0.00254   0.37740    0.85470   1.00
H2       0.02740    0.38109    0.86666   1.00
H2       -0.01803   0.35478    0.87210   1.00
H2       -0.01830   0.40553    0.85829   1.00
C5       -0.01105   0.19841    0.82511   1.00
C5       -0.11070   0.29894    0.67174   1.00
H2       0.00912    0.18850    0.80170   1.00
H2       -0.03712   0.17891    0.82538   1.00
H2       -0.08300   0.31586    0.66917   1.00
H2       -0.12895   0.31342    0.69461   1.00
H2       -0.19055   0.32490    0.64152   1.00
H2       0.05750    0.15508    0.84810   1.00
H2       0.01234    0.13115    0.86231   1.00
C2       0.10395    0.25149    0.75210   1.00
C3       0.08403    0.21679    0.74226   1.00
O2       0.10326    0.18143    0.74281   1.00
C3       0.08174    0.28556    0.75923   1.00
H1       0.09615    0.31282    0.76583   1.00
C3a      0.04287    0.21663    0.74078   1.00
H1       0.02798    0.18933    0.73540   1.00
C3b      0.04078    0.28500    0.75895   1.00
C4       0.02100    0.25035    0.74977   1.00
O_3      -0.02167   0.23786    0.81996   1.00
C5       0.11280    0.16981    0.70448   1.00
H2       0.08609    0.16673    0.68606   1.00
C5       0.13334    0.13026    0.70752   1.00
H2       0.13274    0.19132    0.69041   1.00
H2       0.11077    0.10721    0.71135   1.00
H2       0.15101    0.13055    0.73481   1.00
C5       0.15931    0.12119    0.67191   1.00
H2       0.14189    0.12407    0.64471   1.00
H2       0.17109    0.09096    0.67364   1.00
H2       0.18506    0.14119    0.67054   1.00
C5       0.00980    0.19517    0.86421   1.00
H2       -0.01218   0.19852    0.88791   1.00
H2       0.03045    0.22015    0.86684   1.00
C5       0.03197    0.15631    0.86830   1.00
H2       0.04334    0.15320    0.89851   1.00
C5       0.63227    0.29850    0.86739   1.00
H2       0.64755    0.26995    0.86851   1.00
H2       0.61099    0.29813    0.89184   1.00
C5       0.66219    0.33185    0.87305   1.00
H2       0.66890    0.33610    0.90455   1.00
H2       0.65040    0.35956    0.86089   1.00
O_3      0.48000    0.31905    0.73455   1.00
C4       0.52100    0.24956    0.74996   1.00
C3c      0.54243    0.25656    0.78418   1.00
H1       0.52725    0.26199    0.81129   1.00
C3d      0.54135    0.24199    0.71506   1.00
C3       0.58354    0.25723    0.78395   1.00
O2       0.60248    0.25951    0.81929   1.00
C3       0.58227    0.24337    0.71457   1.00
H1       0.59657    0.23876    0.68684   1.00
C2       0.60439    0.25083    0.74882   1.00
C5       0.47879    0.32820    0.69440   1.00
H2       0.44838    0.33247    0.68367   1.00
H2       0.49266    0.30472    0.67660   1.00
C5       0.50122    0.36600    0.68856   1.00
H2       0.53129    0.36208    0.70029   1.00
H2       0.48691    0.38930    0.70617   1.00
C5       0.50254    0.37740    0.64530   1.00
H2       0.47260    0.38109    0.63334   1.00
H2       0.51803    0.35478    0.62790   1.00
H2       0.51830    0.40553    0.64171   1.00
C5       0.51105    0.19841    0.67489   1.00
C5       0.61070    0.29894    0.82826   1.00
H2       0.49088    0.18850    0.69830   1.00
H2       0.53712    0.17891    0.67462   1.00
H2       0.58300    0.31586    0.83083   1.00
H2       0.62895    0.31342    0.80539   1.00
H2       0.69055    0.32490    0.85848   1.00
H2       0.44250    0.15508    0.65190   1.00
H2       0.48766    0.13115    0.63769   1.00
C2       0.39605    0.25149    0.74790   1.00
C3       0.41597    0.21679    0.75774   1.00
O2       0.39674    0.18143    0.75719   1.00
C3       0.41826    0.28556    0.74077   1.00
H1       0.40385    0.31282    0.73417   1.00
C3a      0.45713    0.21663    0.75922   1.00
H1       0.47202    0.18933    0.76460   1.00
C3b      0.45922    0.28500    0.74105   1.00
C4       0.47900    0.25035    0.75023   1.00
O_3      0.52167    0.23786    0.68004   1.00
C5       0.38720    0.16981    0.79552   1.00
H2       0.41391    0.16673    0.81394   1.00
C5       0.36666    0.13026    0.79248   1.00
H2       0.36726    0.19132    0.80959   1.00
H2       0.38923    0.10721    0.78865   1.00
H2       0.34899    0.13055    0.76519   1.00
C5       0.34069    0.12119    0.82809   1.00
H2       0.35811    0.12407    0.85529   1.00
H2       0.32891    0.09096    0.82636   1.00
H2       0.31494    0.14119    0.82946   1.00
C5       0.49020    0.19517    0.63579   1.00
H2       0.51218    0.19852    0.61209   1.00
H2       0.46955    0.22015    0.63316   1.00
C5       0.46803    0.15631    0.63170   1.00
H2       0.45666    0.15320    0.60149   1.00
C5       0.13261    -0.13227   0.79850   1.00
H2       0.13149    -0.14755   0.76995   1.00
H2       0.10816    -0.11099   0.79813   1.00
C5       0.12695    -0.16219   0.83185   1.00
H2       0.09545    -0.16890   0.83610   1.00
H2       0.13911    -0.15040   0.85956   1.00
O_3      0.26545    0.02000    0.81905   1.00
C4       0.25004    -0.02100   0.74956   1.00
C3c      0.21582    -0.04243   0.75656   1.00
H1       0.18871    -0.02725   0.76199   1.00
C3d      0.28494    -0.04135   0.74199   1.00
C3       0.21605    -0.08354   0.75723   1.00
O2       0.18071    -0.10248   0.75951   1.00
C3       0.28543    -0.08227   0.74337   1.00
H1       0.31316    -0.09657   0.73876   1.00
C2       0.25118    -0.10439   0.75083   1.00
C5       0.30560    0.02121    0.82820   1.00
H2       0.31633    0.05162    0.83247   1.00
H2       0.32340    0.00734    0.80472   1.00
C5       0.31144    -0.00122   0.86600   1.00
H2       0.29971    -0.03129   0.86208   1.00
H2       0.29383    0.01309    0.88930   1.00
C5       0.35470    -0.00254   0.87740   1.00
H2       0.36666    0.02740    0.88109   1.00
H2       0.37210    -0.01803   0.85478   1.00
H2       0.35829    -0.01830   0.90553   1.00
C5       0.32511    -0.01105   0.69841   1.00
C5       0.17174    -0.11070   0.79894   1.00
H2       0.30170    0.00912    0.68850   1.00
H2       0.32538    -0.03712   0.67891   1.00
H2       0.16917    -0.08300   0.81586   1.00
H2       0.19461    -0.12895   0.81342   1.00
H2       0.14152    -0.19055   0.82490   1.00
H2       0.34810    0.05750    0.65508   1.00
H2       0.36231    0.01234    0.63115   1.00
C2       0.25210    0.10395    0.75149   1.00
C3       0.24226    0.08403    0.71679   1.00
O2       0.24281    0.10326    0.68143   1.00
C3       0.25923    0.08174    0.78556   1.00
H1       0.26583    0.09615    0.81282   1.00
C3a      0.24078    0.04287    0.71663   1.00
H1       0.23540    0.02798    0.68933   1.00
C3b      0.25895    0.04078    0.78500   1.00
C4       0.24977    0.02100    0.75035   1.00
O_3      0.31996    -0.02167   0.73786   1.00
C5       0.20448    0.11280    0.66981   1.00
H2       0.18606    0.08609    0.66673   1.00
C5       0.20752    0.13334    0.63026   1.00
H2       0.19041    0.13274    0.69132   1.00
H2       0.21135    0.11077    0.60721   1.00
H2       0.23481    0.15101    0.63055   1.00
C5       0.17191    0.15931    0.62119   1.00
H2       0.14471    0.14189    0.62407   1.00
H2       0.17364    0.17109    0.59096   1.00
H2       0.17054    0.18506    0.64119   1.00
C5       0.36421    0.00980    0.69517   1.00
H2       0.38791    -0.01218   0.69852   1.00
H2       0.36684    0.03045    0.72015   1.00
C5       0.36830    0.03197    0.65631   1.00
H2       0.39851    0.04334    0.65320   1.00
C5       0.29850    0.13261    0.36773   1.00
H2       0.26995    0.13149    0.35245   1.00
H2       0.29813    0.10816    0.38901   1.00
C5       0.33185    0.12695    0.33781   1.00
H2       0.33610    0.09545    0.33110   1.00
H2       0.35956    0.13911    0.34960   1.00
O_3      0.31905    0.26545    0.52000   1.00
C4       0.24956    0.25004    0.47900   1.00
C3c      0.25656    0.21582    0.45757   1.00
H1       0.26199    0.18871    0.47275   1.00
C3d      0.24199    0.28494    0.45865   1.00
C3       0.25723    0.21605    0.41646   1.00
O2       0.25951    0.18071    0.39752   1.00
C3       0.24337    0.28543    0.41773   1.00
H1       0.23876    0.31316    0.40343   1.00
C2       0.25083    0.25118    0.39561   1.00
C5       0.32820    0.30560    0.52121   1.00
H2       0.33247    0.31633    0.55162   1.00
H2       0.30472    0.32340    0.50734   1.00
C5       0.36600    0.31144    0.49878   1.00
H2       0.36208    0.29971    0.46871   1.00
H2       0.38930    0.29383    0.51309   1.00
C5       0.37740    0.35470    0.49746   1.00
H2       0.38109    0.36666    0.52740   1.00
H2       0.35478    0.37210    0.48197   1.00
H2       0.40553    0.35829    0.48170   1.00
C5       0.19841    0.32511    0.48895   1.00
C5       0.29894    0.17174    0.38930   1.00
H2       0.18850    0.30170    0.50912   1.00
H2       0.17891    0.32538    0.46288   1.00
H2       0.31586    0.16917    0.41700   1.00
H2       0.31342    0.19461    0.37105   1.00
H2       0.32490    0.14152    0.30945   1.00
H2       0.15508    0.34810    0.55750   1.00
H2       0.13115    0.36231    0.51234   1.00
C2       0.25149    0.25210    0.60395   1.00
C3       0.21679    0.24226    0.58403   1.00
O2       0.18143    0.24281    0.60326   1.00
C3       0.28556    0.25923    0.58174   1.00
H1       0.31282    0.26583    0.59615   1.00
C3a      0.21663    0.24078    0.54287   1.00
H1       0.18933    0.23540    0.52798   1.00
C3b      0.28500    0.25895    0.54078   1.00
C4       0.25035    0.24977    0.52100   1.00
O_3      0.23786    0.31996    0.47833   1.00
C5       0.16981    0.20448    0.61280   1.00
H2       0.16673    0.18606    0.58609   1.00
C5       0.13026    0.20752    0.63334   1.00
H2       0.19132    0.19041    0.63274   1.00
H2       0.10721    0.21135    0.61077   1.00
H2       0.13055    0.23481    0.65101   1.00
C5       0.12119    0.17191    0.65931   1.00
H2       0.12407    0.14471    0.64189   1.00
H2       0.09096    0.17364    0.67109   1.00
H2       0.14119    0.17054    0.68506   1.00
C5       0.19517    0.36421    0.50980   1.00
H2       0.19852    0.38791    0.48782   1.00
H2       0.22015    0.36684    0.53045   1.00
C5       0.15631    0.36830    0.53197   1.00
H2       0.15320    0.39851    0.54334   1.00
C5       0.29850    0.86739    0.63227   1.00
H2       0.26995    0.86851    0.64755   1.00
H2       0.29813    0.89184    0.61099   1.00
C5       0.33185    0.87305    0.66219   1.00
H2       0.33610    0.90455    0.66890   1.00
H2       0.35956    0.86089    0.65040   1.00
O_3      0.31905    0.73455    0.48000   1.00
C4       0.24956    0.74996    0.52100   1.00
C3c      0.25656    0.78418    0.54243   1.00
H1       0.26199    0.81129    0.52725   1.00
C3d      0.24199    0.71506    0.54135   1.00
C3       0.25723    0.78395    0.58354   1.00
O2       0.25951    0.81929    0.60248   1.00
C3       0.24337    0.71457    0.58227   1.00
H1       0.23876    0.68684    0.59657   1.00
C2       0.25083    0.74882    0.60439   1.00
C5       0.32820    0.69440    0.47879   1.00
H2       0.33247    0.68367    0.44838   1.00
H2       0.30472    0.67660    0.49266   1.00
C5       0.36600    0.68856    0.50122   1.00
H2       0.36208    0.70029    0.53129   1.00
H2       0.38930    0.70617    0.48691   1.00
C5       0.37740    0.64530    0.50254   1.00
H2       0.38109    0.63334    0.47260   1.00
H2       0.35478    0.62790    0.51803   1.00
H2       0.40553    0.64171    0.51830   1.00
C5       0.19841    0.67489    0.51105   1.00
C5       0.29894    0.82826    0.61070   1.00
H2       0.18850    0.69830    0.49088   1.00
H2       0.17891    0.67462    0.53712   1.00
H2       0.31586    0.83083    0.58300   1.00
H2       0.31342    0.80539    0.62895   1.00
H2       0.32490    0.85848    0.69055   1.00
H2       0.15508    0.65190    0.44250   1.00
H2       0.13115    0.63769    0.48766   1.00
C2       0.25149    0.74790    0.39605   1.00
C3       0.21679    0.75774    0.41597   1.00
O2       0.18143    0.75719    0.39674   1.00
C3       0.28556    0.74077    0.41826   1.00
H1       0.31282    0.73417    0.40385   1.00
C3a      0.21663    0.75922    0.45713   1.00
H1       0.18933    0.76460    0.47202   1.00
C3b      0.28500    0.74105    0.45922   1.00
C4       0.25035    0.75023    0.47900   1.00
O_3      0.23786    0.68004    0.52167   1.00
C5       0.16981    0.79552    0.38720   1.00
H2       0.16673    0.81394    0.41391   1.00
C5       0.13026    0.79248    0.36666   1.00
H2       0.19132    0.80959    0.36726   1.00
H2       0.10721    0.78865    0.38923   1.00
H2       0.13055    0.76519    0.34899   1.00
C5       0.12119    0.82809    0.34069   1.00
H2       0.12407    0.85529    0.35811   1.00
H2       0.09096    0.82636    0.32891   1.00
H2       0.14119    0.82946    0.31494   1.00
C5       0.19517    0.63579    0.49020   1.00
H2       0.19852    0.61209    0.51218   1.00
H2       0.22015    0.63316    0.46955   1.00
C5       0.15631    0.63170    0.46803   1.00
H2       0.15320    0.60149    0.45666   1.00
C5       0.36739    1.13227    0.29850   1.00
H2       0.36851    1.14755    0.26995   1.00
H2       0.39184    1.11099    0.29813   1.00
C5       0.37305    1.16219    0.33185   1.00
H2       0.40455    1.16890    0.33610   1.00
H2       0.36089    1.15040    0.35956   1.00
O_3      0.23455    0.98000    0.31905   1.00
C4       0.24996    1.02100    0.24956   1.00
C3c      0.28418    1.04243    0.25656   1.00
H1       0.31129    1.02725    0.26199   1.00
C3d      0.21506    1.04135    0.24199   1.00
C3       0.28395    1.08354    0.25723   1.00
O2       0.31929    1.10248    0.25951   1.00
C3       0.21457    1.08227    0.24337   1.00
H1       0.18684    1.09657    0.23876   1.00
C2       0.24882    1.10439    0.25083   1.00
C5       0.19440    0.97879    0.32820   1.00
H2       0.18367    0.94838    0.33247   1.00
H2       0.17660    0.99266    0.30472   1.00
C5       0.18856    1.00122    0.36600   1.00
H2       0.20029    1.03129    0.36208   1.00
H2       0.20617    0.98691    0.38930   1.00
C5       0.14530    1.00254    0.37740   1.00
H2       0.13334    0.97260    0.38109   1.00
H2       0.12790    1.01803    0.35478   1.00
H2       0.14171    1.01830    0.40553   1.00
C5       0.17489    1.01105    0.19841   1.00
C5       0.32826    1.11070    0.29894   1.00
H2       0.19830    0.99088    0.18850   1.00
H2       0.17462    1.03712    0.17891   1.00
H2       0.33083    1.08300    0.31586   1.00
H2       0.30539    1.12895    0.31342   1.00
H2       0.35848    1.19055    0.32490   1.00
H2       0.15190    0.94250    0.15508   1.00
H2       0.13769    0.98766    0.13115   1.00
C2       0.24790    0.89605    0.25149   1.00
C3       0.25774    0.91597    0.21679   1.00
O2       0.25719    0.89674    0.18143   1.00
C3       0.24077    0.91826    0.28556   1.00
H1       0.23417    0.90385    0.31282   1.00
C3a      0.25922    0.95713    0.21663   1.00
H1       0.26460    0.97202    0.18933   1.00
C3b      0.24105    0.95922    0.28500   1.00
C4       0.25023    0.97900    0.25035   1.00
O_3      0.18004    1.02167    0.23786   1.00
C5       0.29552    0.88720    0.16981   1.00
H2       0.31394    0.91391    0.16673   1.00
C5       0.29248    0.86666    0.13026   1.00
H2       0.30959    0.86726    0.19132   1.00
H2       0.28865    0.88923    0.10721   1.00
H2       0.26519    0.84899    0.13055   1.00
C5       0.32809    0.84069    0.12119   1.00
H2       0.35529    0.85811    0.12407   1.00
H2       0.32636    0.82891    0.09096   1.00
H2       0.32946    0.81494    0.14119   1.00
C5       0.13579    0.99020    0.19517   1.00
H2       0.11209    1.01218    0.19852   1.00
H2       0.13316    0.96955    0.22015   1.00
C5       0.13170    0.96803    0.15631   1.00
H2       0.10149    0.95666    0.15320   1.00
C5       -0.13227   0.79850    0.13261   1.00
H2       -0.14755   0.76995    0.13149   1.00
H2       -0.11099   0.79813    0.10816   1.00
C5       -0.16219   0.83185    0.12695   1.00
H2       -0.16890   0.83610    0.09545   1.00
H2       -0.15040   0.85956    0.13911   1.00
O_3      0.02000    0.81905    0.26545   1.00
C4       -0.02100   0.74956    0.25004   1.00
C3c      -0.04243   0.75656    0.21582   1.00
H1       -0.02725   0.76199    0.18871   1.00
C3d      -0.04135   0.74199    0.28494   1.00
C3       -0.08354   0.75723    0.21605   1.00
O2       -0.10248   0.75951    0.18071   1.00
C3       -0.08227   0.74337    0.28543   1.00
H1       -0.09657   0.73876    0.31316   1.00
C2       -0.10439   0.75083    0.25118   1.00
C5       0.02121    0.82820    0.30560   1.00
H2       0.05162    0.83247    0.31633   1.00
H2       0.00734    0.80472    0.32340   1.00
C5       -0.00122   0.86600    0.31144   1.00
H2       -0.03129   0.86208    0.29971   1.00
H2       0.01309    0.88930    0.29383   1.00
C5       -0.00254   0.87740    0.35470   1.00
H2       0.02740    0.88109    0.36666   1.00
H2       -0.01803   0.85478    0.37210   1.00
H2       -0.01830   0.90553    0.35829   1.00
C5       -0.01105   0.69841    0.32511   1.00
C5       -0.11070   0.79894    0.17174   1.00
H2       0.00912    0.68850    0.30170   1.00
H2       -0.03712   0.67891    0.32538   1.00
H2       -0.08300   0.81586    0.16917   1.00
H2       -0.12895   0.81342    0.19461   1.00
H2       -0.19055   0.82490    0.14152   1.00
H2       0.05750    0.65508    0.34810   1.00
H2       0.01234    0.63115    0.36231   1.00
C2       0.10395    0.75149    0.25210   1.00
C3       0.08403    0.71679    0.24226   1.00
O2       0.10326    0.68143    0.24281   1.00
C3       0.08174    0.78556    0.25923   1.00
H1       0.09615    0.81282    0.26583   1.00
C3a      0.04287    0.71663    0.24078   1.00
H1       0.02798    0.68933    0.23540   1.00
C3b      0.04078    0.78500    0.25895   1.00
C4       0.02100    0.75035    0.24977   1.00
O_3      -0.02167   0.73786    0.31996   1.00
C5       0.11280    0.66981    0.20448   1.00
H2       0.08609    0.66673    0.18606   1.00
C5       0.13334    0.63026    0.20752   1.00
H2       0.13274    0.69132    0.19041   1.00
H2       0.11077    0.60721    0.21135   1.00
H2       0.15101    0.63055    0.23481   1.00
C5       0.15931    0.62119    0.17191   1.00
H2       0.14189    0.62407    0.14471   1.00
H2       0.17109    0.59096    0.17364   1.00
H2       0.18506    0.64119    0.17054   1.00
C5       0.00980    0.69517    0.36421   1.00
H2       -0.01218   0.69852    0.38791   1.00
H2       0.03045    0.72015    0.36684   1.00
C5       0.03197    0.65631    0.36830   1.00
H2       0.04334    0.65320    0.39851   1.00
C5       0.63227    0.79850    0.36739   1.00
H2       0.64755    0.76995    0.36851   1.00
H2       0.61099    0.79813    0.39184   1.00
C5       0.66219    0.83185    0.37305   1.00
H2       0.66890    0.83610    0.40455   1.00
H2       0.65040    0.85956    0.36089   1.00
O_3      0.48000    0.81905    0.23455   1.00
C4       0.52100    0.74956    0.24996   1.00
C3c      0.54243    0.75656    0.28418   1.00
H1       0.52725    0.76199    0.31129   1.00
C3d      0.54135    0.74199    0.21506   1.00
C3       0.58354    0.75723    0.28395   1.00
O2       0.60248    0.75951    0.31929   1.00
C3       0.58227    0.74337    0.21457   1.00
H1       0.59657    0.73876    0.18684   1.00
C2       0.60439    0.75083    0.24882   1.00
C5       0.47879    0.82820    0.19440   1.00
H2       0.44838    0.83247    0.18367   1.00
H2       0.49266    0.80472    0.17660   1.00
C5       0.50122    0.86600    0.18856   1.00
H2       0.53129    0.86208    0.20029   1.00
H2       0.48691    0.88930    0.20617   1.00
C5       0.50254    0.87740    0.14530   1.00
H2       0.47260    0.88109    0.13334   1.00
H2       0.51803    0.85478    0.12790   1.00
H2       0.51830    0.90553    0.14171   1.00
C5       0.51105    0.69841    0.17489   1.00
C5       0.61070    0.79894    0.32826   1.00
H2       0.49088    0.68850    0.19830   1.00
H2       0.53712    0.67891    0.17462   1.00
H2       0.58300    0.81586    0.33083   1.00
H2       0.62895    0.81342    0.30539   1.00
H2       0.69055    0.82490    0.35848   1.00
H2       0.44250    0.65508    0.15190   1.00
H2       0.48766    0.63115    0.13769   1.00
C2       0.39605    0.75149    0.24790   1.00
C3       0.41597    0.71679    0.25774   1.00
O2       0.39674    0.68143    0.25719   1.00
C3       0.41826    0.78556    0.24077   1.00
H1       0.40385    0.81282    0.23417   1.00
C3a      0.45713    0.71663    0.25922   1.00
H1       0.47202    0.68933    0.26460   1.00
C3b      0.45922    0.78500    0.24105   1.00
C4       0.47900    0.75035    0.25023   1.00
O_3      0.52167    0.73786    0.18004   1.00
C5       0.38720    0.66981    0.29552   1.00
H2       0.41391    0.66673    0.31394   1.00
C5       0.36666    0.63026    0.29248   1.00
H2       0.36726    0.69132    0.30959   1.00
H2       0.38923    0.60721    0.28865   1.00
H2       0.34899    0.63055    0.26519   1.00
C5       0.34069    0.62119    0.32809   1.00
H2       0.35811    0.62407    0.35529   1.00
H2       0.32891    0.59096    0.32636   1.00
H2       0.31494    0.64119    0.32946   1.00
C5       0.49020    0.69517    0.13579   1.00
H2       0.51218    0.69852    0.11209   1.00
H2       0.46955    0.72015    0.13316   1.00
C5       0.46803    0.65631    0.13170   1.00
H2       0.45666    0.65320    0.10149   1.00
C5       0.13261    0.36773    0.29850   1.00
H2       0.13149    0.35245    0.26995   1.00
H2       0.10816    0.38901    0.29813   1.00
C5       0.12695    0.33781    0.33185   1.00
H2       0.09545    0.33110    0.33610   1.00
H2       0.13911    0.34960    0.35956   1.00
O_3      0.26545    0.52000    0.31905   1.00
C4       0.25004    0.47900    0.24956   1.00
C3c      0.21582    0.45757    0.25656   1.00
H1       0.18871    0.47275    0.26199   1.00
C3d      0.28494    0.45865    0.24199   1.00
C3       0.21605    0.41646    0.25723   1.00
O2       0.18071    0.39752    0.25951   1.00
C3       0.28543    0.41773    0.24337   1.00
H1       0.31316    0.40343    0.23876   1.00
C2       0.25118    0.39561    0.25083   1.00
C5       0.30560    0.52121    0.32820   1.00
H2       0.31633    0.55162    0.33247   1.00
H2       0.32340    0.50734    0.30472   1.00
C5       0.31144    0.49878    0.36600   1.00
H2       0.29971    0.46871    0.36208   1.00
H2       0.29383    0.51309    0.38930   1.00
C5       0.35470    0.49746    0.37740   1.00
H2       0.36666    0.52740    0.38109   1.00
H2       0.37210    0.48197    0.35478   1.00
H2       0.35829    0.48170    0.40553   1.00
C5       0.32511    0.48895    0.19841   1.00
C5       0.17174    0.38930    0.29894   1.00
H2       0.30170    0.50912    0.18850   1.00
H2       0.32538    0.46288    0.17891   1.00
H2       0.16917    0.41700    0.31586   1.00
H2       0.19461    0.37105    0.31342   1.00
H2       0.14152    0.30945    0.32490   1.00
H2       0.34810    0.55750    0.15508   1.00
H2       0.36231    0.51234    0.13115   1.00
C2       0.25210    0.60395    0.25149   1.00
C3       0.24226    0.58403    0.21679   1.00
O2       0.24281    0.60326    0.18143   1.00
C3       0.25923    0.58174    0.28556   1.00
H1       0.26583    0.59615    0.31282   1.00
C3a      0.24078    0.54287    0.21663   1.00
H1       0.23540    0.52798    0.18933   1.00
C3b      0.25895    0.54078    0.28500   1.00
C4       0.24977    0.52100    0.25035   1.00
O_3      0.31996    0.47833    0.23786   1.00
C5       0.20448    0.61280    0.16981   1.00
H2       0.18606    0.58609    0.16673   1.00
C5       0.20752    0.63334    0.13026   1.00
H2       0.19041    0.63274    0.19132   1.00
H2       0.21135    0.61077    0.10721   1.00
H2       0.23481    0.65101    0.13055   1.00
C5       0.17191    0.65931    0.12119   1.00
H2       0.14471    0.64189    0.12407   1.00
H2       0.17364    0.67109    0.09096   1.00
H2       0.17054    0.68506    0.14119   1.00
C5       0.36421    0.50980    0.19517   1.00
H2       0.38791    0.48782    0.19852   1.00
H2       0.36684    0.53045    0.22015   1.00
C5       0.36830    0.53197    0.15631   1.00
H2       0.39851    0.54334    0.15320   1.00
C5       0.29850    0.63261    -0.13227   1.00
H2       0.26995    0.63149    -0.14755   1.00
H2       0.29813    0.60816    -0.11099   1.00
C5       0.33185    0.62695    -0.16219   1.00
H2       0.33610    0.59545    -0.16890   1.00
H2       0.35956    0.63911    -0.15040   1.00
O_3      0.31905    0.76545    0.02000   1.00
C4       0.24956    0.75004    -0.02100   1.00
C3c      0.25656    0.71582    -0.04243   1.00
H1       0.26199    0.68871    -0.02725   1.00
C3d      0.24199    0.78494    -0.04135   1.00
C3       0.25723    0.71605    -0.08354   1.00
O2       0.25951    0.68071    -0.10248   1.00
C3       0.24337    0.78543    -0.08227   1.00
H1       0.23876    0.81316    -0.09657   1.00
C2       0.25083    0.75118    -0.10439   1.00
C5       0.32820    0.80560    0.02121   1.00
H2       0.33247    0.81633    0.05162   1.00
H2       0.30472    0.82340    0.00734   1.00
C5       0.36600    0.81144    -0.00122   1.00
H2       0.36208    0.79971    -0.03129   1.00
H2       0.38930    0.79383    0.01309   1.00
C5       0.37740    0.85470    -0.00254   1.00
H2       0.38109    0.86666    0.02740   1.00
H2       0.35478    0.87210    -0.01803   1.00
H2       0.40553    0.85829    -0.01830   1.00
C5       0.19841    0.82511    -0.01105   1.00
C5       0.29894    0.67174    -0.11070   1.00
H2       0.18850    0.80170    0.00912   1.00
H2       0.17891    0.82538    -0.03712   1.00
H2       0.31586    0.66917    -0.08300   1.00
H2       0.31342    0.69461    -0.12895   1.00
H2       0.32490    0.64152    -0.19055   1.00
H2       0.15508    0.84810    0.05750   1.00
H2       0.13115    0.86231    0.01234   1.00
C2       0.25149    0.75210    0.10395   1.00
C3       0.21679    0.74226    0.08403   1.00
O2       0.18143    0.74281    0.10326   1.00
C3       0.28556    0.75923    0.08174   1.00
H1       0.31282    0.76583    0.09615   1.00
C3a      0.21663    0.74078    0.04287   1.00
H1       0.18933    0.73540    0.02798   1.00
C3b      0.28500    0.75895    0.04078   1.00
C4       0.25035    0.74977    0.02100   1.00
O_3      0.23786    0.81996    -0.02167   1.00
C5       0.16981    0.70448    0.11280   1.00
H2       0.16673    0.68606    0.08609   1.00
C5       0.13026    0.70752    0.13334   1.00
H2       0.19132    0.69041    0.13274   1.00
H2       0.10721    0.71135    0.11077   1.00
H2       0.13055    0.73481    0.15101   1.00
C5       0.12119    0.67191    0.15931   1.00
H2       0.12407    0.64471    0.14189   1.00
H2       0.09096    0.67364    0.17109   1.00
H2       0.14119    0.67054    0.18506   1.00
C5       0.19517    0.86421    0.00980   1.00
H2       0.19852    0.88791    -0.01218   1.00
H2       0.22015    0.86684    0.03045   1.00
C5       0.15631    0.86830    0.03197   1.00
H2       0.15320    0.89851    0.04334   1.00
C5       0.79850    0.36739    0.63227   1.00
H2       0.76995    0.36851    0.64755   1.00
H2       0.79813    0.39184    0.61099   1.00
C5       0.83185    0.37305    0.66219   1.00
H2       0.83610    0.40455    0.66890   1.00
H2       0.85956    0.36089    0.65040   1.00
O_3      0.81905    0.23455    0.48000   1.00
C4       0.74956    0.24996    0.52100   1.00
C3c      0.75656    0.28418    0.54243   1.00
H1       0.76199    0.31129    0.52725   1.00
C3d      0.74199    0.21506    0.54135   1.00
C3       0.75723    0.28395    0.58354   1.00
O2       0.75951    0.31929    0.60248   1.00
C3       0.74337    0.21457    0.58227   1.00
H1       0.73876    0.18684    0.59657   1.00
C2       0.75083    0.24882    0.60439   1.00
C5       0.82820    0.19440    0.47879   1.00
H2       0.83247    0.18367    0.44838   1.00
H2       0.80472    0.17660    0.49266   1.00
C5       0.86600    0.18856    0.50122   1.00
H2       0.86208    0.20029    0.53129   1.00
H2       0.88930    0.20617    0.48691   1.00
C5       0.87740    0.14530    0.50254   1.00
H2       0.88109    0.13334    0.47260   1.00
H2       0.85478    0.12790    0.51803   1.00
H2       0.90553    0.14171    0.51830   1.00
C5       0.69841    0.17489    0.51105   1.00
C5       0.79894    0.32826    0.61070   1.00
H2       0.68850    0.19830    0.49088   1.00
H2       0.67891    0.17462    0.53712   1.00
H2       0.81586    0.33083    0.58300   1.00
H2       0.81342    0.30539    0.62895   1.00
H2       0.82490    0.35848    0.69055   1.00
H2       0.65508    0.15190    0.44250   1.00
H2       0.63115    0.13769    0.48766   1.00
C2       0.75149    0.24790    0.39605   1.00
C3       0.71679    0.25774    0.41597   1.00
O2       0.68143    0.25719    0.39674   1.00
C3       0.78556    0.24077    0.41826   1.00
H1       0.81282    0.23417    0.40385   1.00
C3a      0.71663    0.25922    0.45713   1.00
H1       0.68933    0.26460    0.47202   1.00
C3b      0.78500    0.24105    0.45922   1.00
C4       0.75035    0.25023    0.47900   1.00
O_3      0.73786    0.18004    0.52167   1.00
C5       0.66981    0.29552    0.38720   1.00
H2       0.66673    0.31394    0.41391   1.00
C5       0.63026    0.29248    0.36666   1.00
H2       0.69132    0.30959    0.36726   1.00
H2       0.60721    0.28865    0.38923   1.00
H2       0.63055    0.26519    0.34899   1.00
C5       0.62119    0.32809    0.34069   1.00
H2       0.62407    0.35529    0.35811   1.00
H2       0.59096    0.32636    0.32891   1.00
H2       0.64119    0.32946    0.31494   1.00
C5       0.69517    0.13579    0.49020   1.00
H2       0.69852    0.11209    0.51218   1.00
H2       0.72015    0.13316    0.46955   1.00
C5       0.65631    0.13170    0.46803   1.00
H2       0.65320    0.10149    0.45666   1.00
C5       0.86739    0.63227    0.29850   1.00
H2       0.86851    0.64755    0.26995   1.00
H2       0.89184    0.61099    0.29813   1.00
C5       0.87305    0.66219    0.33185   1.00
H2       0.90455    0.66890    0.33610   1.00
H2       0.86089    0.65040    0.35956   1.00
O_3      0.73455    0.48000    0.31905   1.00
C4       0.74996    0.52100    0.24956   1.00
C3c      0.78418    0.54243    0.25656   1.00
H1       0.81129    0.52725    0.26199   1.00
C3d      0.71506    0.54135    0.24199   1.00
C3       0.78395    0.58354    0.25723   1.00
O2       0.81929    0.60248    0.25951   1.00
C3       0.71457    0.58227    0.24337   1.00
H1       0.68684    0.59657    0.23876   1.00
C2       0.74882    0.60439    0.25083   1.00
C5       0.69440    0.47879    0.32820   1.00
H2       0.68367    0.44838    0.33247   1.00
H2       0.67660    0.49266    0.30472   1.00
C5       0.68856    0.50122    0.36600   1.00
H2       0.70029    0.53129    0.36208   1.00
H2       0.70617    0.48691    0.38930   1.00
C5       0.64530    0.50254    0.37740   1.00
H2       0.63334    0.47260    0.38109   1.00
H2       0.62790    0.51803    0.35478   1.00
H2       0.64171    0.51830    0.40553   1.00
C5       0.67489    0.51105    0.19841   1.00
C5       0.82826    0.61070    0.29894   1.00
H2       0.69830    0.49088    0.18850   1.00
H2       0.67462    0.53712    0.17891   1.00
H2       0.83083    0.58300    0.31586   1.00
H2       0.80539    0.62895    0.31342   1.00
H2       0.85848    0.69055    0.32490   1.00
H2       0.65190    0.44250    0.15508   1.00
H2       0.63769    0.48766    0.13115   1.00
C2       0.74790    0.39605    0.25149   1.00
C3       0.75774    0.41597    0.21679   1.00
O2       0.75719    0.39674    0.18143   1.00
C3       0.74077    0.41826    0.28556   1.00
H1       0.73417    0.40385    0.31282   1.00
C3a      0.75922    0.45713    0.21663   1.00
H1       0.76460    0.47202    0.18933   1.00
C3b      0.74105    0.45922    0.28500   1.00
C4       0.75023    0.47900    0.25035   1.00
O_3      0.68004    0.52167    0.23786   1.00
C5       0.79552    0.38720    0.16981   1.00
H2       0.81394    0.41391    0.16673   1.00
C5       0.79248    0.36666    0.13026   1.00
H2       0.80959    0.36726    0.19132   1.00
H2       0.78865    0.38923    0.10721   1.00
H2       0.76519    0.34899    0.13055   1.00
C5       0.82809    0.34069    0.12119   1.00
H2       0.85529    0.35811    0.12407   1.00
H2       0.82636    0.32891    0.09096   1.00
H2       0.82946    0.31494    0.14119   1.00
C5       0.63579    0.49020    0.19517   1.00
H2       0.61209    0.51218    0.19852   1.00
H2       0.63316    0.46955    0.22015   1.00
C5       0.63170    0.46803    0.15631   1.00
H2       0.60149    0.45666    0.15320   1.00
C5       0.36773    0.29850    0.13261   1.00
H2       0.35245    0.26995    0.13149   1.00
H2       0.38901    0.29813    0.10816   1.00
C5       0.33781    0.33185    0.12695   1.00
H2       0.33110    0.33610    0.09545   1.00
H2       0.34960    0.35956    0.13911   1.00
O_3      0.52000    0.31905    0.26545   1.00
C4       0.47900    0.24956    0.25004   1.00
C3c      0.45757    0.25656    0.21582   1.00
H1       0.47275    0.26199    0.18871   1.00
C3d      0.45865    0.24199    0.28494   1.00
C3       0.41646    0.25723    0.21605   1.00
O2       0.39752    0.25951    0.18071   1.00
C3       0.41773    0.24337    0.28543   1.00
H1       0.40343    0.23876    0.31316   1.00
C2       0.39561    0.25083    0.25118   1.00
C5       0.52121    0.32820    0.30560   1.00
H2       0.55162    0.33247    0.31633   1.00
H2       0.50734    0.30472    0.32340   1.00
C5       0.49878    0.36600    0.31144   1.00
H2       0.46871    0.36208    0.29971   1.00
H2       0.51309    0.38930    0.29383   1.00
C5       0.49746    0.37740    0.35470   1.00
H2       0.52740    0.38109    0.36666   1.00
H2       0.48197    0.35478    0.37210   1.00
H2       0.48170    0.40553    0.35829   1.00
C5       0.48895    0.19841    0.32511   1.00
C5       0.38930    0.29894    0.17174   1.00
H2       0.50912    0.18850    0.30170   1.00
H2       0.46288    0.17891    0.32538   1.00
H2       0.41700    0.31586    0.16917   1.00
H2       0.37105    0.31342    0.19461   1.00
H2       0.30945    0.32490    0.14152   1.00
H2       0.55750    0.15508    0.34810   1.00
H2       0.51234    0.13115    0.36231   1.00
C2       0.60395    0.25149    0.25210   1.00
C3       0.58403    0.21679    0.24226   1.00
O2       0.60326    0.18143    0.24281   1.00
C3       0.58174    0.28556    0.25923   1.00
H1       0.59615    0.31282    0.26583   1.00
C3a      0.54287    0.21663    0.24078   1.00
H1       0.52798    0.18933    0.23540   1.00
C3b      0.54078    0.28500    0.25895   1.00
C4       0.52100    0.25035    0.24977   1.00
O_3      0.47833    0.23786    0.31996   1.00
C5       0.61280    0.16981    0.20448   1.00
H2       0.58609    0.16673    0.18606   1.00
C5       0.63334    0.13026    0.20752   1.00
H2       0.63274    0.19132    0.19041   1.00
H2       0.61077    0.10721    0.21135   1.00
H2       0.65101    0.13055    0.23481   1.00
C5       0.65931    0.12119    0.17191   1.00
H2       0.64189    0.12407    0.14471   1.00
H2       0.67109    0.09096    0.17364   1.00
H2       0.68506    0.14119    0.17054   1.00
C5       0.50980    0.19517    0.36421   1.00
H2       0.48782    0.19852    0.38791   1.00
H2       0.53045    0.22015    0.36684   1.00
C5       0.53197    0.15631    0.36830   1.00
H2       0.54334    0.15320    0.39851   1.00
C5       1.13227    0.29850    0.36739   1.00
H2       1.14755    0.26995    0.36851   1.00
H2       1.11099    0.29813    0.39184   1.00
C5       1.16219    0.33185    0.37305   1.00
H2       1.16890    0.33610    0.40455   1.00
H2       1.15040    0.35956    0.36089   1.00
O_3      0.98000    0.31905    0.23455   1.00
C4       1.02100    0.24956    0.24996   1.00
C3c      1.04243    0.25656    0.28418   1.00
H1       1.02725    0.26199    0.31129   1.00
C3d      1.04135    0.24199    0.21506   1.00
C3       1.08354    0.25723    0.28395   1.00
O2       1.10248    0.25951    0.31929   1.00
C3       1.08227    0.24337    0.21457   1.00
H1       1.09657    0.23876    0.18684   1.00
C2       1.10439    0.25083    0.24882   1.00
C5       0.97879    0.32820    0.19440   1.00
H2       0.94838    0.33247    0.18367   1.00
H2       0.99266    0.30472    0.17660   1.00
C5       1.00122    0.36600    0.18856   1.00
H2       1.03129    0.36208    0.20029   1.00
H2       0.98691    0.38930    0.20617   1.00
C5       1.00254    0.37740    0.14530   1.00
H2       0.97260    0.38109    0.13334   1.00
H2       1.01803    0.35478    0.12790   1.00
H2       1.01830    0.40553    0.14171   1.00
C5       1.01105    0.19841    0.17489   1.00
C5       1.11070    0.29894    0.32826   1.00
H2       0.99088    0.18850    0.19830   1.00
H2       1.03712    0.17891    0.17462   1.00
H2       1.08300    0.31586    0.33083   1.00
H2       1.12895    0.31342    0.30539   1.00
H2       1.19055    0.32490    0.35848   1.00
H2       0.94250    0.15508    0.15190   1.00
H2       0.98766    0.13115    0.13769   1.00
C2       0.89605    0.25149    0.24790   1.00
C3       0.91597    0.21679    0.25774   1.00
O2       0.89674    0.18143    0.25719   1.00
C3       0.91826    0.28556    0.24077   1.00
H1       0.90385    0.31282    0.23417   1.00
C3a      0.95713    0.21663    0.25922   1.00
H1       0.97202    0.18933    0.26460   1.00
C3b      0.95922    0.28500    0.24105   1.00
C4       0.97900    0.25035    0.25023   1.00
O_3      1.02167    0.23786    0.18004   1.00
C5       0.88720    0.16981    0.29552   1.00
H2       0.91391    0.16673    0.31394   1.00
C5       0.86666    0.13026    0.29248   1.00
H2       0.86726    0.19132    0.30959   1.00
H2       0.88923    0.10721    0.28865   1.00
H2       0.84899    0.13055    0.26519   1.00
C5       0.84069    0.12119    0.32809   1.00
H2       0.85811    0.12407    0.35529   1.00
H2       0.82891    0.09096    0.32636   1.00
H2       0.81494    0.14119    0.32946   1.00
C5       0.99020    0.19517    0.13579   1.00
H2       1.01218    0.19852    0.11209   1.00
H2       0.96955    0.22015    0.13316   1.00
C5       0.96803    0.15631    0.13170   1.00
H2       0.95666    0.15320    0.10149   1.00
C5       0.63261    -0.13227   0.29850   1.00
H2       0.63149    -0.14755   0.26995   1.00
H2       0.60816    -0.11099   0.29813   1.00
C5       0.62695    -0.16219   0.33185   1.00
H2       0.59545    -0.16890   0.33610   1.00
H2       0.63911    -0.15040   0.35956   1.00
O_3      0.76545    0.02000    0.31905   1.00
C4       0.75004    -0.02100   0.24956   1.00
C3c      0.71582    -0.04243   0.25656   1.00
H1       0.68871    -0.02725   0.26199   1.00
C3d      0.78494    -0.04135   0.24199   1.00
C3       0.71605    -0.08354   0.25723   1.00
O2       0.68071    -0.10248   0.25951   1.00
C3       0.78543    -0.08227   0.24337   1.00
H1       0.81316    -0.09657   0.23876   1.00
C2       0.75118    -0.10439   0.25083   1.00
C5       0.80560    0.02121    0.32820   1.00
H2       0.81633    0.05162    0.33247   1.00
H2       0.82340    0.00734    0.30472   1.00
C5       0.81144    -0.00122   0.36600   1.00
H2       0.79971    -0.03129   0.36208   1.00
H2       0.79383    0.01309    0.38930   1.00
C5       0.85470    -0.00254   0.37740   1.00
H2       0.86666    0.02740    0.38109   1.00
H2       0.87210    -0.01803   0.35478   1.00
H2       0.85829    -0.01830   0.40553   1.00
C5       0.82511    -0.01105   0.19841   1.00
C5       0.67174    -0.11070   0.29894   1.00
H2       0.80170    0.00912    0.18850   1.00
H2       0.82538    -0.03712   0.17891   1.00
H2       0.66917    -0.08300   0.31586   1.00
H2       0.69461    -0.12895   0.31342   1.00
H2       0.64152    -0.19055   0.32490   1.00
H2       0.84810    0.05750    0.15508   1.00
H2       0.86231    0.01234    0.13115   1.00
C2       0.75210    0.10395    0.25149   1.00
C3       0.74226    0.08403    0.21679   1.00
O2       0.74281    0.10326    0.18143   1.00
C3       0.75923    0.08174    0.28556   1.00
H1       0.76583    0.09615    0.31282   1.00
C3a      0.74078    0.04287    0.21663   1.00
H1       0.73540    0.02798    0.18933   1.00
C3b      0.75895    0.04078    0.28500   1.00
C4       0.74977    0.02100    0.25035   1.00
O_3      0.81996    -0.02167   0.23786   1.00
C5       0.70448    0.11280    0.16981   1.00
H2       0.68606    0.08609    0.16673   1.00
C5       0.70752    0.13334    0.13026   1.00
H2       0.69041    0.13274    0.19132   1.00
H2       0.71135    0.11077    0.10721   1.00
H2       0.73481    0.15101    0.13055   1.00
C5       0.67191    0.15931    0.12119   1.00
H2       0.64471    0.14189    0.12407   1.00
H2       0.67364    0.17109    0.09096   1.00
H2       0.67054    0.18506    0.14119   1.00
C5       0.86421    0.00980    0.19517   1.00
H2       0.88791    -0.01218   0.19852   1.00
H2       0.86684    0.03045    0.22015   1.00
C5       0.86830    0.03197    0.15631   1.00
H2       0.89851    0.04334    0.15320   1.00
C5       0.79850    0.13261    -0.13227   1.00
H2       0.76995    0.13149    -0.14755   1.00
H2       0.79813    0.10816    -0.11099   1.00
C5       0.83185    0.12695    -0.16219   1.00
H2       0.83610    0.09545    -0.16890   1.00
H2       0.85956    0.13911    -0.15040   1.00
O_3      0.81905    0.26545    0.02000   1.00
C4       0.74956    0.25004    -0.02100   1.00
C3c      0.75656    0.21582    -0.04243   1.00
H1       0.76199    0.18871    -0.02725   1.00
C3d      0.74199    0.28494    -0.04135   1.00
C3       0.75723    0.21605    -0.08354   1.00
O2       0.75951    0.18071    -0.10248   1.00
C3       0.74337    0.28543    -0.08227   1.00
H1       0.73876    0.31316    -0.09657   1.00
C2       0.75083    0.25118    -0.10439   1.00
C5       0.82820    0.30560    0.02121   1.00
H2       0.83247    0.31633    0.05162   1.00
H2       0.80472    0.32340    0.00734   1.00
C5       0.86600    0.31144    -0.00122   1.00
H2       0.86208    0.29971    -0.03129   1.00
H2       0.88930    0.29383    0.01309   1.00
C5       0.87740    0.35470    -0.00254   1.00
H2       0.88109    0.36666    0.02740   1.00
H2       0.85478    0.37210    -0.01803   1.00
H2       0.90553    0.35829    -0.01830   1.00
C5       0.69841    0.32511    -0.01105   1.00
C5       0.79894    0.17174    -0.11070   1.00
H2       0.68850    0.30170    0.00912   1.00
H2       0.67891    0.32538    -0.03712   1.00
H2       0.81586    0.16917    -0.08300   1.00
H2       0.81342    0.19461    -0.12895   1.00
H2       0.82490    0.14152    -0.19055   1.00
H2       0.65508    0.34810    0.05750   1.00
H2       0.63115    0.36231    0.01234   1.00
C2       0.75149    0.25210    0.10395   1.00
C3       0.71679    0.24226    0.08403   1.00
O2       0.68143    0.24281    0.10326   1.00
C3       0.78556    0.25923    0.08174   1.00
H1       0.81282    0.26583    0.09615   1.00
C3a      0.71663    0.24078    0.04287   1.00
H1       0.68933    0.23540    0.02798   1.00
C3b      0.78500    0.25895    0.04078   1.00
C4       0.75035    0.24977    0.02100   1.00
O_3      0.73786    0.31996    -0.02167   1.00
C5       0.66981    0.20448    0.11280   1.00
H2       0.66673    0.18606    0.08609   1.00
C5       0.63026    0.20752    0.13334   1.00
H2       0.69132    0.19041    0.13274   1.00
H2       0.60721    0.21135    0.11077   1.00
H2       0.63055    0.23481    0.15101   1.00
C5       0.62119    0.17191    0.15931   1.00
H2       0.62407    0.14471    0.14189   1.00
H2       0.59096    0.17364    0.17109   1.00
H2       0.64119    0.17054    0.18506   1.00
C5       0.69517    0.36421    0.00980   1.00
H2       0.69852    0.38791    -0.01218   1.00
H2       0.72015    0.36684    0.03045   1.00
C5       0.65631    0.36830    0.03197   1.00
H2       0.65320    0.39851    0.04334   1.00
