data_IRMOF10_SG202_Ligand4_label_l.

_audit_creation_method             'generated by an auxiliary program of Tobunporous'

_symmetry_space_group_name_H-M     'P 1'
_symmetry_Int_Tables_number        1
_symmetry_cell_setting             triclinic

_cell_length_a                    34.2800
_cell_length_b                    34.2800
_cell_length_c                    34.2800
_cell_angle_alpha                 90.0000
_cell_angle_beta                  90.0000
_cell_angle_gamma                 90.0000

loop_
_atom_site_label
_atom_site_fract_x
_atom_site_fract_y
_atom_site_fract_z
_atom_site_occupancy
O1       0.75000    0.75000    0.75000   1.00
Zn1      0.71720    0.78280    0.78280   1.00
Zn1      0.78280    0.71720    0.78280   1.00
Zn1      0.78280    0.78280    0.71720   1.00
Zn1      0.71720    0.71720    0.71720   1.00
O2       0.72650    0.77350    0.83820   1.00
O2       0.72650    0.83820    0.77350   1.00
O2       0.66180    0.77350    0.77350   1.00
O2       0.77350    0.72650    0.83820   1.00
O2       0.83820    0.72650    0.77350   1.00
O2       0.77350    0.66180    0.77350   1.00
O2       0.77350    0.83820    0.72650   1.00
O2       0.83820    0.77350    0.72650   1.00
O2       0.77350    0.77350    0.66180   1.00
O2       0.66180    0.72650    0.72650   1.00
O2       0.72650    0.66180    0.72650   1.00
O2       0.72650    0.72650    0.66180   1.00
C1       0.75000    0.75000    0.85520   1.00
C1       0.75000    0.85520    0.75000   1.00
C1       0.64480    0.75000    0.75000   1.00
C1       0.85520    0.75000    0.75000   1.00
C1       0.75000    0.64480    0.75000   1.00
C1       0.75000    0.75000    0.64480   1.00
O1       0.25000    0.25000    0.75000   1.00
Zn1      0.21720    0.28280    0.78280   1.00
Zn1      0.28280    0.21720    0.78280   1.00
Zn1      0.28280    0.28280    0.71720   1.00
Zn1      0.21720    0.21720    0.71720   1.00
O2       0.22650    0.27350    0.83820   1.00
O2       0.22650    0.33820    0.77350   1.00
O2       0.16180    0.27350    0.77350   1.00
O2       0.27350    0.22650    0.83820   1.00
O2       0.33820    0.22650    0.77350   1.00
O2       0.27350    0.16180    0.77350   1.00
O2       0.27350    0.33820    0.72650   1.00
O2       0.33820    0.27350    0.72650   1.00
O2       0.27350    0.27350    0.66180   1.00
O2       0.16180    0.22650    0.72650   1.00
O2       0.22650    0.16180    0.72650   1.00
O2       0.22650    0.22650    0.66180   1.00
C1       0.25000    0.25000    0.85520   1.00
C1       0.25000    0.35520    0.75000   1.00
C1       0.14480    0.25000    0.75000   1.00
C1       0.35520    0.25000    0.75000   1.00
C1       0.25000    0.14480    0.75000   1.00
C1       0.25000    0.25000    0.64480   1.00
O1       0.25000    0.75000    0.25000   1.00
Zn1      0.21720    0.78280    0.28280   1.00
Zn1      0.28280    0.71720    0.28280   1.00
Zn1      0.28280    0.78280    0.21720   1.00
Zn1      0.21720    0.71720    0.21720   1.00
O2       0.22650    0.77350    0.33820   1.00
O2       0.22650    0.83820    0.27350   1.00
O2       0.16180    0.77350    0.27350   1.00
O2       0.27350    0.72650    0.33820   1.00
O2       0.33820    0.72650    0.27350   1.00
O2       0.27350    0.66180    0.27350   1.00
O2       0.27350    0.83820    0.22650   1.00
O2       0.33820    0.77350    0.22650   1.00
O2       0.27350    0.77350    0.16180   1.00
O2       0.16180    0.72650    0.22650   1.00
O2       0.22650    0.66180    0.22650   1.00
O2       0.22650    0.72650    0.16180   1.00
C1       0.25000    0.75000    0.35520   1.00
C1       0.25000    0.85520    0.25000   1.00
C1       0.14480    0.75000    0.25000   1.00
C1       0.35520    0.75000    0.25000   1.00
C1       0.25000    0.64480    0.25000   1.00
C1       0.25000    0.75000    0.14480   1.00
O1       0.75000    0.25000    0.25000   1.00
Zn1      0.71720    0.28280    0.28280   1.00
Zn1      0.78280    0.21720    0.28280   1.00
Zn1      0.78280    0.28280    0.21720   1.00
Zn1      0.71720    0.21720    0.21720   1.00
O2       0.72650    0.27350    0.33820   1.00
O2       0.72650    0.33820    0.27350   1.00
O2       0.66180    0.27350    0.27350   1.00
O2       0.77350    0.22650    0.33820   1.00
O2       0.83820    0.22650    0.27350   1.00
O2       0.77350    0.16180    0.27350   1.00
O2       0.77350    0.33820    0.22650   1.00
O2       0.83820    0.27350    0.22650   1.00
O2       0.77350    0.27350    0.16180   1.00
O2       0.66180    0.22650    0.22650   1.00
O2       0.72650    0.16180    0.22650   1.00
O2       0.72650    0.22650    0.16180   1.00
C1       0.75000    0.25000    0.35520   1.00
C1       0.75000    0.35520    0.25000   1.00
C1       0.64480    0.25000    0.25000   1.00
C1       0.85520    0.25000    0.25000   1.00
C1       0.75000    0.14480    0.25000   1.00
C1       0.75000    0.25000    0.14480   1.00
O1       0.25000    0.25000    0.25000   1.00
Zn1      0.28280    0.21720    0.21720   1.00
Zn1      0.21720    0.28280    0.21720   1.00
Zn1      0.21720    0.21720    0.28280   1.00
Zn1      0.28280    0.28280    0.28280   1.00
O2       0.27350    0.22650    0.16180   1.00
O2       0.27350    0.16180    0.22650   1.00
O2       0.33820    0.22650    0.22650   1.00
O2       0.22650    0.27350    0.16180   1.00
O2       0.16180    0.27350    0.22650   1.00
O2       0.22650    0.33820    0.22650   1.00
O2       0.22650    0.16180    0.27350   1.00
O2       0.16180    0.22650    0.27350   1.00
O2       0.22650    0.22650    0.33820   1.00
O2       0.33820    0.27350    0.27350   1.00
O2       0.27350    0.33820    0.27350   1.00
O2       0.27350    0.27350    0.33820   1.00
C1       0.25000    0.25000    0.14480   1.00
C1       0.25000    0.14480    0.25000   1.00
C1       0.35520    0.25000    0.25000   1.00
C1       0.14480    0.25000    0.25000   1.00
C1       0.25000    0.35520    0.25000   1.00
C1       0.25000    0.25000    0.35520   1.00
O1       0.75000    0.75000    0.25000   1.00
Zn1      0.78280    0.71720    0.21720   1.00
Zn1      0.71720    0.78280    0.21720   1.00
Zn1      0.71720    0.71720    0.28280   1.00
Zn1      0.78280    0.78280    0.28280   1.00
O2       0.77350    0.72650    0.16180   1.00
O2       0.77350    0.66180    0.22650   1.00
O2       0.83820    0.72650    0.22650   1.00
O2       0.72650    0.77350    0.16180   1.00
O2       0.66180    0.77350    0.22650   1.00
O2       0.72650    0.83820    0.22650   1.00
O2       0.72650    0.66180    0.27350   1.00
O2       0.66180    0.72650    0.27350   1.00
O2       0.72650    0.72650    0.33820   1.00
O2       0.83820    0.77350    0.27350   1.00
O2       0.77350    0.83820    0.27350   1.00
O2       0.77350    0.77350    0.33820   1.00
C1       0.75000    0.75000    0.14480   1.00
C1       0.75000    0.64480    0.25000   1.00
C1       0.85520    0.75000    0.25000   1.00
C1       0.64480    0.75000    0.25000   1.00
C1       0.75000    0.85520    0.25000   1.00
C1       0.75000    0.75000    0.35520   1.00
O1       0.75000    0.25000    0.75000   1.00
Zn1      0.78280    0.21720    0.71720   1.00
Zn1      0.71720    0.28280    0.71720   1.00
Zn1      0.71720    0.21720    0.78280   1.00
Zn1      0.78280    0.28280    0.78280   1.00
O2       0.77350    0.22650    0.66180   1.00
O2       0.77350    0.16180    0.72650   1.00
O2       0.83820    0.22650    0.72650   1.00
O2       0.72650    0.27350    0.66180   1.00
O2       0.66180    0.27350    0.72650   1.00
O2       0.72650    0.33820    0.72650   1.00
O2       0.72650    0.16180    0.77350   1.00
O2       0.66180    0.22650    0.77350   1.00
O2       0.72650    0.22650    0.83820   1.00
O2       0.83820    0.27350    0.77350   1.00
O2       0.77350    0.33820    0.77350   1.00
O2       0.77350    0.27350    0.83820   1.00
C1       0.75000    0.25000    0.64480   1.00
C1       0.75000    0.14480    0.75000   1.00
C1       0.85520    0.25000    0.75000   1.00
C1       0.64480    0.25000    0.75000   1.00
C1       0.75000    0.35520    0.75000   1.00
C1       0.75000    0.25000    0.85520   1.00
O1       0.25000    0.75000    0.75000   1.00
Zn1      0.28280    0.71720    0.71720   1.00
Zn1      0.21720    0.78280    0.71720   1.00
Zn1      0.21720    0.71720    0.78280   1.00
Zn1      0.28280    0.78280    0.78280   1.00
O2       0.27350    0.72650    0.66180   1.00
O2       0.27350    0.66180    0.72650   1.00
O2       0.33820    0.72650    0.72650   1.00
O2       0.22650    0.77350    0.66180   1.00
O2       0.16180    0.77350    0.72650   1.00
O2       0.22650    0.83820    0.72650   1.00
O2       0.22650    0.66180    0.77350   1.00
O2       0.16180    0.72650    0.77350   1.00
O2       0.22650    0.72650    0.83820   1.00
O2       0.33820    0.77350    0.77350   1.00
O2       0.27350    0.83820    0.77350   1.00
O2       0.27350    0.77350    0.83820   1.00
C1       0.25000    0.75000    0.64480   1.00
C1       0.25000    0.64480    0.75000   1.00
C1       0.35520    0.75000    0.75000   1.00
C1       0.14480    0.75000    0.75000   1.00
C1       0.25000    0.85520    0.75000   1.00
C1       0.25000    0.75000    0.85520   1.00
C4       0.74590    0.75249    0.98025   1.00
C4       0.74576    0.75403    1.02191   1.00
C3       0.72532    0.72328    0.95897   1.00
C3       0.72183    0.72910    1.04504   1.00
C3       0.76734    0.78096    0.95854   1.00
C3       0.77026    0.78141    1.04170   1.00
C2       0.74460    0.75047    0.89595   1.00
C2       0.74686    0.75580    1.10622   1.00
C3       0.72448    0.72236    0.91811   1.00
C3       0.72246    0.72977    1.08591   1.00
C3       0.76555    0.77913    0.91696   1.00
C3       0.77020    0.78100    1.08336   1.00
H1       0.71049    0.70136    0.97237   1.00
H1       0.70276    0.70979    1.03306   1.00
C5       0.78994    0.81009    0.97835   1.00
C5       0.79378    0.80836    1.01998   1.00
H1       0.70897    0.70063    0.90451   1.00
H1       0.70461    0.71093    1.10091   1.00
H1       0.78019    0.79902    0.90052   1.00
H1       0.78743    0.79985    1.09848   1.00
C6       0.80905    0.84248    0.95515   1.00
C6       0.82261    0.83427    1.04119   1.00
H2       0.78845    0.85325    0.93345   1.00
H2       0.83789    0.81703    1.06310   1.00
H2       0.81382    0.86835    0.97286   1.00
H2       0.84646    0.84320    1.02228   1.00
C6       0.84871    0.83000    0.93606   1.00
C6       0.80334    0.87154    1.05942   1.00
H2       0.84561    0.80110    0.92292   1.00
H2       0.77604    0.86348    1.07383   1.00
C6       0.86667    0.85782    0.90459   1.00
C6       0.82820    0.89578    1.08911   1.00
H2       0.87002    0.82633    0.95949   1.00
H2       0.79482    0.89077    1.03546   1.00
C6       0.84100    0.85974    0.86735   1.00
C6       0.83630    0.87250    1.12708   1.00
C6       0.87266    0.89962    0.92074   1.00
C6       0.86747    0.90903    1.07107   1.00
C6       0.90720    0.84159    0.89245   1.00
C6       0.80484    0.93289    1.10054   1.00
H2       0.83569    0.83060    0.85558   1.00
H2       0.80915    0.86217    1.14020   1.00
H2       0.81281    0.87315    0.87330   1.00
H2       0.85471    0.84720    1.12154   1.00
H2       0.85506    0.87701    0.84459   1.00
H2       0.85127    0.89054    1.14863   1.00
H2       0.88773    0.91802    0.89955   1.00
H2       0.88330    0.92821    1.09098   1.00
H2       0.84476    0.91343    0.92725   1.00
H2       0.88620    0.88406    1.06494   1.00
H2       0.88998    0.89902    0.94745   1.00
H2       0.86263    0.92481    1.04385   1.00
H2       0.90456    0.81220    0.88042   1.00
H2       0.77693    0.92515    1.11383   1.00
H2       0.92084    0.85993    0.87025   1.00
H2       0.82093    0.95070    1.12149   1.00
H2       0.92695    0.84027    0.91739   1.00
H2       0.79888    0.95099    1.07502   1.00
C4       0.75249    0.98025    0.74590   1.00
C4       0.75403    1.02191    0.74576   1.00
C3       0.72328    0.95897    0.72532   1.00
C3       0.72910    1.04504    0.72183   1.00
C3       0.78096    0.95854    0.76734   1.00
C3       0.78141    1.04170    0.77026   1.00
C2       0.75047    0.89595    0.74460   1.00
C2       0.75580    1.10622    0.74686   1.00
C3       0.72236    0.91811    0.72448   1.00
C3       0.72977    1.08591    0.72246   1.00
C3       0.77913    0.91696    0.76555   1.00
C3       0.78100    1.08336    0.77020   1.00
H1       0.70136    0.97237    0.71049   1.00
H1       0.70979    1.03306    0.70276   1.00
C5       0.81009    0.97835    0.78994   1.00
C5       0.80836    1.01998    0.79378   1.00
H1       0.70063    0.90451    0.70897   1.00
H1       0.71093    1.10091    0.70461   1.00
H1       0.79902    0.90052    0.78019   1.00
H1       0.79985    1.09848    0.78743   1.00
C6       0.84248    0.95515    0.80905   1.00
C6       0.83427    1.04119    0.82261   1.00
H2       0.85325    0.93345    0.78845   1.00
H2       0.81703    1.06310    0.83789   1.00
H2       0.86835    0.97286    0.81382   1.00
H2       0.84320    1.02228    0.84646   1.00
C6       0.83000    0.93606    0.84871   1.00
C6       0.87154    1.05942    0.80334   1.00
H2       0.80110    0.92292    0.84561   1.00
H2       0.86348    1.07383    0.77604   1.00
C6       0.85782    0.90459    0.86667   1.00
C6       0.89578    1.08911    0.82820   1.00
H2       0.82633    0.95949    0.87002   1.00
H2       0.89077    1.03546    0.79482   1.00
C6       0.85974    0.86735    0.84100   1.00
C6       0.87250    1.12708    0.83630   1.00
C6       0.89962    0.92074    0.87266   1.00
C6       0.90903    1.07107    0.86747   1.00
C6       0.84159    0.89245    0.90720   1.00
C6       0.93289    1.10054    0.80484   1.00
H2       0.83060    0.85558    0.83569   1.00
H2       0.86217    1.14020    0.80915   1.00
H2       0.87315    0.87330    0.81281   1.00
H2       0.84720    1.12154    0.85471   1.00
H2       0.87701    0.84459    0.85506   1.00
H2       0.89054    1.14863    0.85127   1.00
H2       0.91802    0.89955    0.88773   1.00
H2       0.92821    1.09098    0.88330   1.00
H2       0.91343    0.92725    0.84476   1.00
H2       0.88406    1.06494    0.88620   1.00
H2       0.89902    0.94745    0.88998   1.00
H2       0.92481    1.04385    0.86263   1.00
H2       0.81220    0.88042    0.90456   1.00
H2       0.92515    1.11383    0.77693   1.00
H2       0.85993    0.87025    0.92084   1.00
H2       0.95070    1.12149    0.82093   1.00
H2       0.84027    0.91739    0.92695   1.00
H2       0.95099    1.07502    0.79888   1.00
C4       0.51975    0.74590    0.74751   1.00
C4       0.47809    0.74576    0.74597   1.00
C3       0.54103    0.72532    0.77672   1.00
C3       0.45496    0.72183    0.77090   1.00
C3       0.54146    0.76734    0.71904   1.00
C3       0.45830    0.77026    0.71859   1.00
C2       0.60405    0.74460    0.74953   1.00
C2       0.39378    0.74686    0.74420   1.00
C3       0.58189    0.72448    0.77764   1.00
C3       0.41409    0.72246    0.77023   1.00
C3       0.58304    0.76555    0.72087   1.00
C3       0.41664    0.77020    0.71900   1.00
H1       0.52763    0.71049    0.79864   1.00
H1       0.46694    0.70276    0.79021   1.00
C5       0.52165    0.78994    0.68991   1.00
C5       0.48002    0.79378    0.69164   1.00
H1       0.59549    0.70897    0.79937   1.00
H1       0.39909    0.70461    0.78907   1.00
H1       0.59948    0.78019    0.70098   1.00
H1       0.40152    0.78743    0.70015   1.00
C6       0.54485    0.80905    0.65752   1.00
C6       0.45881    0.82261    0.66573   1.00
H2       0.56655    0.78845    0.64675   1.00
H2       0.43690    0.83789    0.68297   1.00
H2       0.52714    0.81382    0.63165   1.00
H2       0.47772    0.84646    0.65680   1.00
C6       0.56394    0.84871    0.67000   1.00
C6       0.44058    0.80334    0.62846   1.00
H2       0.57708    0.84561    0.69890   1.00
H2       0.42617    0.77604    0.63652   1.00
C6       0.59541    0.86667    0.64218   1.00
C6       0.41089    0.82820    0.60422   1.00
H2       0.54051    0.87002    0.67367   1.00
H2       0.46454    0.79482    0.60923   1.00
C6       0.63265    0.84100    0.64026   1.00
C6       0.37292    0.83630    0.62750   1.00
C6       0.57926    0.87266    0.60038   1.00
C6       0.42893    0.86747    0.59097   1.00
C6       0.60755    0.90720    0.65841   1.00
C6       0.39946    0.80484    0.56711   1.00
H2       0.64442    0.83569    0.66940   1.00
H2       0.35980    0.80915    0.63783   1.00
H2       0.62670    0.81281    0.62685   1.00
H2       0.37846    0.85471    0.65280   1.00
H2       0.65541    0.85506    0.62299   1.00
H2       0.35137    0.85127    0.60946   1.00
H2       0.60045    0.88773    0.58198   1.00
H2       0.40902    0.88330    0.57179   1.00
H2       0.57275    0.84476    0.58657   1.00
H2       0.43506    0.88620    0.61594   1.00
H2       0.55255    0.88998    0.60098   1.00
H2       0.45615    0.86263    0.57519   1.00
H2       0.61958    0.90456    0.68780   1.00
H2       0.38617    0.77693    0.57485   1.00
H2       0.62975    0.92084    0.64007   1.00
H2       0.37851    0.82093    0.54930   1.00
H2       0.58261    0.92695    0.65973   1.00
H2       0.42498    0.79888    0.54901   1.00
C4       0.98025    0.74590    0.75249   1.00
C4       1.02191    0.74576    0.75403   1.00
C3       0.95897    0.72532    0.72328   1.00
C3       1.04504    0.72183    0.72910   1.00
C3       0.95854    0.76734    0.78096   1.00
C3       1.04170    0.77026    0.78141   1.00
C2       0.89595    0.74460    0.75047   1.00
C2       1.10622    0.74686    0.75580   1.00
C3       0.91811    0.72448    0.72236   1.00
C3       1.08591    0.72246    0.72977   1.00
C3       0.91696    0.76555    0.77913   1.00
C3       1.08336    0.77020    0.78100   1.00
H1       0.97237    0.71049    0.70136   1.00
H1       1.03306    0.70276    0.70979   1.00
C5       0.97835    0.78994    0.81009   1.00
C5       1.01998    0.79378    0.80836   1.00
H1       0.90451    0.70897    0.70063   1.00
H1       1.10091    0.70461    0.71093   1.00
H1       0.90052    0.78019    0.79902   1.00
H1       1.09848    0.78743    0.79985   1.00
C6       0.95515    0.80905    0.84248   1.00
C6       1.04119    0.82261    0.83427   1.00
H2       0.93345    0.78845    0.85325   1.00
H2       1.06310    0.83789    0.81703   1.00
H2       0.97286    0.81382    0.86835   1.00
H2       1.02228    0.84646    0.84320   1.00
C6       0.93606    0.84871    0.83000   1.00
C6       1.05942    0.80334    0.87154   1.00
H2       0.92292    0.84561    0.80110   1.00
H2       1.07383    0.77604    0.86348   1.00
C6       0.90459    0.86667    0.85782   1.00
C6       1.08911    0.82820    0.89578   1.00
H2       0.95949    0.87002    0.82633   1.00
H2       1.03546    0.79482    0.89077   1.00
C6       0.86735    0.84100    0.85974   1.00
C6       1.12708    0.83630    0.87250   1.00
C6       0.92074    0.87266    0.89962   1.00
C6       1.07107    0.86747    0.90903   1.00
C6       0.89245    0.90720    0.84159   1.00
C6       1.10054    0.80484    0.93289   1.00
H2       0.85558    0.83569    0.83060   1.00
H2       1.14020    0.80915    0.86217   1.00
H2       0.87330    0.81281    0.87315   1.00
H2       1.12154    0.85471    0.84720   1.00
H2       0.84459    0.85506    0.87701   1.00
H2       1.14863    0.85127    0.89054   1.00
H2       0.89955    0.88773    0.91802   1.00
H2       1.09098    0.88330    0.92821   1.00
H2       0.92725    0.84476    0.91343   1.00
H2       1.06494    0.88620    0.88406   1.00
H2       0.94745    0.88998    0.89902   1.00
H2       1.04385    0.86263    0.92481   1.00
H2       0.88042    0.90456    0.81220   1.00
H2       1.11383    0.77693    0.92515   1.00
H2       0.87025    0.92084    0.85993   1.00
H2       1.12149    0.82093    0.95070   1.00
H2       0.91739    0.92695    0.84027   1.00
H2       1.07502    0.79888    0.95099   1.00
C4       0.74751    0.51975    0.74590   1.00
C4       0.74597    0.47809    0.74576   1.00
C3       0.77672    0.54103    0.72532   1.00
C3       0.77090    0.45496    0.72183   1.00
C3       0.71904    0.54146    0.76734   1.00
C3       0.71859    0.45830    0.77026   1.00
C2       0.74953    0.60405    0.74460   1.00
C2       0.74420    0.39378    0.74686   1.00
C3       0.77764    0.58189    0.72448   1.00
C3       0.77023    0.41409    0.72246   1.00
C3       0.72087    0.58304    0.76555   1.00
C3       0.71900    0.41664    0.77020   1.00
H1       0.79864    0.52763    0.71049   1.00
H1       0.79021    0.46694    0.70276   1.00
C5       0.68991    0.52165    0.78994   1.00
C5       0.69164    0.48002    0.79378   1.00
H1       0.79937    0.59549    0.70897   1.00
H1       0.78907    0.39909    0.70461   1.00
H1       0.70098    0.59948    0.78019   1.00
H1       0.70015    0.40152    0.78743   1.00
C6       0.65752    0.54485    0.80905   1.00
C6       0.66573    0.45881    0.82261   1.00
H2       0.64675    0.56655    0.78845   1.00
H2       0.68297    0.43690    0.83789   1.00
H2       0.63165    0.52714    0.81382   1.00
H2       0.65680    0.47772    0.84646   1.00
C6       0.67000    0.56394    0.84871   1.00
C6       0.62846    0.44058    0.80334   1.00
H2       0.69890    0.57708    0.84561   1.00
H2       0.63652    0.42617    0.77604   1.00
C6       0.64218    0.59541    0.86667   1.00
C6       0.60422    0.41089    0.82820   1.00
H2       0.67367    0.54051    0.87002   1.00
H2       0.60923    0.46454    0.79482   1.00
C6       0.64026    0.63265    0.84100   1.00
C6       0.62750    0.37292    0.83630   1.00
C6       0.60038    0.57926    0.87266   1.00
C6       0.59097    0.42893    0.86747   1.00
C6       0.65841    0.60755    0.90720   1.00
C6       0.56711    0.39946    0.80484   1.00
H2       0.66940    0.64442    0.83569   1.00
H2       0.63783    0.35980    0.80915   1.00
H2       0.62685    0.62670    0.81281   1.00
H2       0.65280    0.37846    0.85471   1.00
H2       0.62299    0.65541    0.85506   1.00
H2       0.60946    0.35137    0.85127   1.00
H2       0.58198    0.60045    0.88773   1.00
H2       0.57179    0.40902    0.88330   1.00
H2       0.58657    0.57275    0.84476   1.00
H2       0.61594    0.43506    0.88620   1.00
H2       0.60098    0.55255    0.88998   1.00
H2       0.57519    0.45615    0.86263   1.00
H2       0.68780    0.61958    0.90456   1.00
H2       0.57485    0.38617    0.77693   1.00
H2       0.64007    0.62975    0.92084   1.00
H2       0.54930    0.37851    0.82093   1.00
H2       0.65973    0.58261    0.92695   1.00
H2       0.54901    0.42498    0.79888   1.00
C4       0.74590    0.74751    0.51975   1.00
C4       0.74576    0.74597    0.47809   1.00
C3       0.72532    0.77672    0.54103   1.00
C3       0.72183    0.77090    0.45496   1.00
C3       0.76734    0.71904    0.54146   1.00
C3       0.77026    0.71859    0.45830   1.00
C2       0.74460    0.74953    0.60405   1.00
C2       0.74686    0.74420    0.39378   1.00
C3       0.72448    0.77764    0.58189   1.00
C3       0.72246    0.77023    0.41409   1.00
C3       0.76555    0.72087    0.58304   1.00
C3       0.77020    0.71900    0.41664   1.00
H1       0.71049    0.79864    0.52763   1.00
H1       0.70276    0.79021    0.46694   1.00
C5       0.78994    0.68991    0.52165   1.00
C5       0.79378    0.69164    0.48002   1.00
H1       0.70897    0.79937    0.59549   1.00
H1       0.70461    0.78907    0.39909   1.00
H1       0.78019    0.70098    0.59948   1.00
H1       0.78743    0.70015    0.40152   1.00
C6       0.80905    0.65752    0.54485   1.00
C6       0.82261    0.66573    0.45881   1.00
H2       0.78845    0.64675    0.56655   1.00
H2       0.83789    0.68297    0.43690   1.00
H2       0.81382    0.63165    0.52714   1.00
H2       0.84646    0.65680    0.47772   1.00
C6       0.84871    0.67000    0.56394   1.00
C6       0.80334    0.62846    0.44058   1.00
H2       0.84561    0.69890    0.57708   1.00
H2       0.77604    0.63652    0.42617   1.00
C6       0.86667    0.64218    0.59541   1.00
C6       0.82820    0.60422    0.41089   1.00
H2       0.87002    0.67367    0.54051   1.00
H2       0.79482    0.60923    0.46454   1.00
C6       0.84100    0.64026    0.63265   1.00
C6       0.83630    0.62750    0.37292   1.00
C6       0.87266    0.60038    0.57926   1.00
C6       0.86747    0.59097    0.42893   1.00
C6       0.90720    0.65841    0.60755   1.00
C6       0.80484    0.56711    0.39946   1.00
H2       0.83569    0.66940    0.64442   1.00
H2       0.80915    0.63783    0.35980   1.00
H2       0.81281    0.62685    0.62670   1.00
H2       0.85471    0.65280    0.37846   1.00
H2       0.85506    0.62299    0.65541   1.00
H2       0.85127    0.60946    0.35137   1.00
H2       0.88773    0.58198    0.60045   1.00
H2       0.88330    0.57179    0.40902   1.00
H2       0.84476    0.58657    0.57275   1.00
H2       0.88620    0.61594    0.43506   1.00
H2       0.88998    0.60098    0.55255   1.00
H2       0.86263    0.57519    0.45615   1.00
H2       0.90456    0.68780    0.61958   1.00
H2       0.77693    0.57485    0.38617   1.00
H2       0.92084    0.64007    0.62975   1.00
H2       0.82093    0.54930    0.37851   1.00
H2       0.92695    0.65973    0.58261   1.00
H2       0.79888    0.54901    0.42498   1.00
C4       0.24590    0.25249    0.98025   1.00
C4       0.24576    0.25403    1.02191   1.00
C3       0.22532    0.22328    0.95897   1.00
C3       0.22183    0.22910    1.04504   1.00
C3       0.26734    0.28096    0.95854   1.00
C3       0.27026    0.28141    1.04170   1.00
C2       0.24460    0.25047    0.89595   1.00
C2       0.24686    0.25580    1.10622   1.00
C3       0.22448    0.22236    0.91811   1.00
C3       0.22246    0.22977    1.08591   1.00
C3       0.26555    0.27913    0.91696   1.00
C3       0.27020    0.28100    1.08336   1.00
H1       0.21049    0.20136    0.97237   1.00
H1       0.20276    0.20979    1.03306   1.00
C5       0.28994    0.31009    0.97835   1.00
C5       0.29378    0.30836    1.01998   1.00
H1       0.20897    0.20063    0.90451   1.00
H1       0.20461    0.21093    1.10091   1.00
H1       0.28019    0.29902    0.90052   1.00
H1       0.28743    0.29985    1.09848   1.00
C6       0.30905    0.34248    0.95515   1.00
C6       0.32261    0.33427    1.04119   1.00
H2       0.28845    0.35325    0.93345   1.00
H2       0.33789    0.31703    1.06310   1.00
H2       0.31382    0.36835    0.97286   1.00
H2       0.34646    0.34320    1.02228   1.00
C6       0.34871    0.33000    0.93606   1.00
C6       0.30334    0.37154    1.05942   1.00
H2       0.34561    0.30110    0.92292   1.00
H2       0.27604    0.36348    1.07383   1.00
C6       0.36667    0.35782    0.90459   1.00
C6       0.32820    0.39578    1.08911   1.00
H2       0.37002    0.32633    0.95949   1.00
H2       0.29482    0.39077    1.03546   1.00
C6       0.34100    0.35974    0.86735   1.00
C6       0.33630    0.37250    1.12708   1.00
C6       0.37266    0.39962    0.92074   1.00
C6       0.36747    0.40903    1.07107   1.00
C6       0.40720    0.34159    0.89245   1.00
C6       0.30484    0.43289    1.10054   1.00
H2       0.33569    0.33060    0.85558   1.00
H2       0.30915    0.36217    1.14020   1.00
H2       0.31281    0.37315    0.87330   1.00
H2       0.35471    0.34720    1.12154   1.00
H2       0.35506    0.37701    0.84459   1.00
H2       0.35127    0.39054    1.14863   1.00
H2       0.38773    0.41802    0.89955   1.00
H2       0.38330    0.42821    1.09098   1.00
H2       0.34476    0.41343    0.92725   1.00
H2       0.38620    0.38406    1.06494   1.00
H2       0.38998    0.39902    0.94745   1.00
H2       0.36263    0.42481    1.04385   1.00
H2       0.40456    0.31220    0.88042   1.00
H2       0.27693    0.42515    1.11383   1.00
H2       0.42084    0.35993    0.87025   1.00
H2       0.32093    0.45070    1.12149   1.00
H2       0.42695    0.34027    0.91739   1.00
H2       0.29888    0.45099    1.07502   1.00
C4       0.25249    0.48025    0.74590   1.00
C4       0.25403    0.52191    0.74576   1.00
C3       0.22328    0.45897    0.72532   1.00
C3       0.22910    0.54504    0.72183   1.00
C3       0.28096    0.45854    0.76734   1.00
C3       0.28141    0.54170    0.77026   1.00
C2       0.25047    0.39595    0.74460   1.00
C2       0.25580    0.60622    0.74686   1.00
C3       0.22236    0.41811    0.72448   1.00
C3       0.22977    0.58591    0.72246   1.00
C3       0.27913    0.41696    0.76555   1.00
C3       0.28100    0.58336    0.77020   1.00
H1       0.20136    0.47237    0.71049   1.00
H1       0.20979    0.53306    0.70276   1.00
C5       0.31009    0.47835    0.78994   1.00
C5       0.30836    0.51998    0.79378   1.00
H1       0.20063    0.40451    0.70897   1.00
H1       0.21093    0.60091    0.70461   1.00
H1       0.29902    0.40052    0.78019   1.00
H1       0.29985    0.59848    0.78743   1.00
C6       0.34248    0.45515    0.80905   1.00
C6       0.33427    0.54119    0.82261   1.00
H2       0.35325    0.43345    0.78845   1.00
H2       0.31703    0.56310    0.83789   1.00
H2       0.36835    0.47286    0.81382   1.00
H2       0.34320    0.52228    0.84646   1.00
C6       0.33000    0.43606    0.84871   1.00
C6       0.37154    0.55942    0.80334   1.00
H2       0.30110    0.42292    0.84561   1.00
H2       0.36348    0.57383    0.77604   1.00
C6       0.35782    0.40459    0.86667   1.00
C6       0.39578    0.58911    0.82820   1.00
H2       0.32633    0.45949    0.87002   1.00
H2       0.39077    0.53546    0.79482   1.00
C6       0.35974    0.36735    0.84100   1.00
C6       0.37250    0.62708    0.83630   1.00
C6       0.39962    0.42074    0.87266   1.00
C6       0.40903    0.57107    0.86747   1.00
C6       0.34159    0.39245    0.90720   1.00
C6       0.43289    0.60054    0.80484   1.00
H2       0.33060    0.35558    0.83569   1.00
H2       0.36217    0.64020    0.80915   1.00
H2       0.37315    0.37330    0.81281   1.00
H2       0.34720    0.62154    0.85471   1.00
H2       0.37701    0.34459    0.85506   1.00
H2       0.39054    0.64863    0.85127   1.00
H2       0.41802    0.39955    0.88773   1.00
H2       0.42821    0.59098    0.88330   1.00
H2       0.41343    0.42725    0.84476   1.00
H2       0.38406    0.56494    0.88620   1.00
H2       0.39902    0.44745    0.88998   1.00
H2       0.42481    0.54385    0.86263   1.00
H2       0.31220    0.38042    0.90456   1.00
H2       0.42515    0.61383    0.77693   1.00
H2       0.35993    0.37025    0.92084   1.00
H2       0.45070    0.62149    0.82093   1.00
H2       0.34027    0.41739    0.92695   1.00
H2       0.45099    0.57502    0.79888   1.00
C4       0.01975    0.24590    0.74751   1.00
C4       -0.02191   0.24576    0.74597   1.00
C3       0.04103    0.22532    0.77672   1.00
C3       -0.04504   0.22183    0.77090   1.00
C3       0.04146    0.26734    0.71904   1.00
C3       -0.04170   0.27026    0.71859   1.00
C2       0.10405    0.24460    0.74953   1.00
C2       -0.10622   0.24686    0.74420   1.00
C3       0.08189    0.22448    0.77764   1.00
C3       -0.08591   0.22246    0.77023   1.00
C3       0.08304    0.26555    0.72087   1.00
C3       -0.08336   0.27020    0.71900   1.00
H1       0.02763    0.21049    0.79864   1.00
H1       -0.03306   0.20276    0.79021   1.00
C5       0.02165    0.28994    0.68991   1.00
C5       -0.01998   0.29378    0.69164   1.00
H1       0.09549    0.20897    0.79937   1.00
H1       -0.10091   0.20461    0.78907   1.00
H1       0.09948    0.28019    0.70098   1.00
H1       -0.09848   0.28743    0.70015   1.00
C6       0.04485    0.30905    0.65752   1.00
C6       -0.04119   0.32261    0.66573   1.00
H2       0.06655    0.28845    0.64675   1.00
H2       -0.06310   0.33789    0.68297   1.00
H2       0.02714    0.31382    0.63165   1.00
H2       -0.02228   0.34646    0.65680   1.00
C6       0.06394    0.34871    0.67000   1.00
C6       -0.05942   0.30334    0.62846   1.00
H2       0.07708    0.34561    0.69890   1.00
H2       -0.07383   0.27604    0.63652   1.00
C6       0.09541    0.36667    0.64218   1.00
C6       -0.08911   0.32820    0.60422   1.00
H2       0.04051    0.37002    0.67367   1.00
H2       -0.03546   0.29482    0.60923   1.00
C6       0.13265    0.34100    0.64026   1.00
C6       -0.12708   0.33630    0.62750   1.00
C6       0.07926    0.37266    0.60038   1.00
C6       -0.07107   0.36747    0.59097   1.00
C6       0.10755    0.40720    0.65841   1.00
C6       -0.10054   0.30484    0.56711   1.00
H2       0.14442    0.33569    0.66940   1.00
H2       -0.14020   0.30915    0.63783   1.00
H2       0.12670    0.31281    0.62685   1.00
H2       -0.12154   0.35471    0.65280   1.00
H2       0.15541    0.35506    0.62299   1.00
H2       -0.14863   0.35127    0.60946   1.00
H2       0.10045    0.38773    0.58198   1.00
H2       -0.09098   0.38330    0.57179   1.00
H2       0.07275    0.34476    0.58657   1.00
H2       -0.06494   0.38620    0.61594   1.00
H2       0.05255    0.38998    0.60098   1.00
H2       -0.04385   0.36263    0.57519   1.00
H2       0.11958    0.40456    0.68780   1.00
H2       -0.11383   0.27693    0.57485   1.00
H2       0.12975    0.42084    0.64007   1.00
H2       -0.12149   0.32093    0.54930   1.00
H2       0.08261    0.42695    0.65973   1.00
H2       -0.07502   0.29888    0.54901   1.00
C4       0.48025    0.24590    0.75249   1.00
C4       0.52191    0.24576    0.75403   1.00
C3       0.45897    0.22532    0.72328   1.00
C3       0.54504    0.22183    0.72910   1.00
C3       0.45854    0.26734    0.78096   1.00
C3       0.54170    0.27026    0.78141   1.00
C2       0.39595    0.24460    0.75047   1.00
C2       0.60622    0.24686    0.75580   1.00
C3       0.41811    0.22448    0.72236   1.00
C3       0.58591    0.22246    0.72977   1.00
C3       0.41696    0.26555    0.77913   1.00
C3       0.58336    0.27020    0.78100   1.00
H1       0.47237    0.21049    0.70136   1.00
H1       0.53306    0.20276    0.70979   1.00
C5       0.47835    0.28994    0.81009   1.00
C5       0.51998    0.29378    0.80836   1.00
H1       0.40451    0.20897    0.70063   1.00
H1       0.60091    0.20461    0.71093   1.00
H1       0.40052    0.28019    0.79902   1.00
H1       0.59848    0.28743    0.79985   1.00
C6       0.45515    0.30905    0.84248   1.00
C6       0.54119    0.32261    0.83427   1.00
H2       0.43345    0.28845    0.85325   1.00
H2       0.56310    0.33789    0.81703   1.00
H2       0.47286    0.31382    0.86835   1.00
H2       0.52228    0.34646    0.84320   1.00
C6       0.43606    0.34871    0.83000   1.00
C6       0.55942    0.30334    0.87154   1.00
H2       0.42292    0.34561    0.80110   1.00
H2       0.57383    0.27604    0.86348   1.00
C6       0.40459    0.36667    0.85782   1.00
C6       0.58911    0.32820    0.89578   1.00
H2       0.45949    0.37002    0.82633   1.00
H2       0.53546    0.29482    0.89077   1.00
C6       0.36735    0.34100    0.85974   1.00
C6       0.62708    0.33630    0.87250   1.00
C6       0.42074    0.37266    0.89962   1.00
C6       0.57107    0.36747    0.90903   1.00
C6       0.39245    0.40720    0.84159   1.00
C6       0.60054    0.30484    0.93289   1.00
H2       0.35558    0.33569    0.83060   1.00
H2       0.64020    0.30915    0.86217   1.00
H2       0.37330    0.31281    0.87315   1.00
H2       0.62154    0.35471    0.84720   1.00
H2       0.34459    0.35506    0.87701   1.00
H2       0.64863    0.35127    0.89054   1.00
H2       0.39955    0.38773    0.91802   1.00
H2       0.59098    0.38330    0.92821   1.00
H2       0.42725    0.34476    0.91343   1.00
H2       0.56494    0.38620    0.88406   1.00
H2       0.44745    0.38998    0.89902   1.00
H2       0.54385    0.36263    0.92481   1.00
H2       0.38042    0.40456    0.81220   1.00
H2       0.61383    0.27693    0.92515   1.00
H2       0.37025    0.42084    0.85993   1.00
H2       0.62149    0.32093    0.95070   1.00
H2       0.41739    0.42695    0.84027   1.00
H2       0.57502    0.29888    0.95099   1.00
C4       0.24751    0.01975    0.74590   1.00
C4       0.24597    -0.02191   0.74576   1.00
C3       0.27672    0.04103    0.72532   1.00
C3       0.27090    -0.04504   0.72183   1.00
C3       0.21904    0.04146    0.76734   1.00
C3       0.21859    -0.04170   0.77026   1.00
C2       0.24953    0.10405    0.74460   1.00
C2       0.24420    -0.10622   0.74686   1.00
C3       0.27764    0.08189    0.72448   1.00
C3       0.27023    -0.08591   0.72246   1.00
C3       0.22087    0.08304    0.76555   1.00
C3       0.21900    -0.08336   0.77020   1.00
H1       0.29864    0.02763    0.71049   1.00
H1       0.29021    -0.03306   0.70276   1.00
C5       0.18991    0.02165    0.78994   1.00
C5       0.19164    -0.01998   0.79378   1.00
H1       0.29937    0.09549    0.70897   1.00
H1       0.28907    -0.10091   0.70461   1.00
H1       0.20098    0.09948    0.78019   1.00
H1       0.20015    -0.09848   0.78743   1.00
C6       0.15752    0.04485    0.80905   1.00
C6       0.16573    -0.04119   0.82261   1.00
H2       0.14675    0.06655    0.78845   1.00
H2       0.18297    -0.06310   0.83789   1.00
H2       0.13165    0.02714    0.81382   1.00
H2       0.15680    -0.02228   0.84646   1.00
C6       0.17000    0.06394    0.84871   1.00
C6       0.12846    -0.05942   0.80334   1.00
H2       0.19890    0.07708    0.84561   1.00
H2       0.13652    -0.07383   0.77604   1.00
C6       0.14218    0.09541    0.86667   1.00
C6       0.10422    -0.08911   0.82820   1.00
H2       0.17367    0.04051    0.87002   1.00
H2       0.10923    -0.03546   0.79482   1.00
C6       0.14026    0.13265    0.84100   1.00
C6       0.12750    -0.12708   0.83630   1.00
C6       0.10038    0.07926    0.87266   1.00
C6       0.09097    -0.07107   0.86747   1.00
C6       0.15841    0.10755    0.90720   1.00
C6       0.06711    -0.10054   0.80484   1.00
H2       0.16940    0.14442    0.83569   1.00
H2       0.13783    -0.14020   0.80915   1.00
H2       0.12685    0.12670    0.81281   1.00
H2       0.15280    -0.12154   0.85471   1.00
H2       0.12299    0.15541    0.85506   1.00
H2       0.10946    -0.14863   0.85127   1.00
H2       0.08198    0.10045    0.88773   1.00
H2       0.07179    -0.09098   0.88330   1.00
H2       0.08657    0.07275    0.84476   1.00
H2       0.11594    -0.06494   0.88620   1.00
H2       0.10098    0.05255    0.88998   1.00
H2       0.07519    -0.04385   0.86263   1.00
H2       0.18780    0.11958    0.90456   1.00
H2       0.07485    -0.11383   0.77693   1.00
H2       0.14007    0.12975    0.92084   1.00
H2       0.04930    -0.12149   0.82093   1.00
H2       0.15973    0.08261    0.92695   1.00
H2       0.04901    -0.07502   0.79888   1.00
C4       0.24590    0.24751    0.51975   1.00
C4       0.24576    0.24597    0.47809   1.00
C3       0.22532    0.27672    0.54103   1.00
C3       0.22183    0.27090    0.45496   1.00
C3       0.26734    0.21904    0.54146   1.00
C3       0.27026    0.21859    0.45830   1.00
C2       0.24460    0.24953    0.60405   1.00
C2       0.24686    0.24420    0.39378   1.00
C3       0.22448    0.27764    0.58189   1.00
C3       0.22246    0.27023    0.41409   1.00
C3       0.26555    0.22087    0.58304   1.00
C3       0.27020    0.21900    0.41664   1.00
H1       0.21049    0.29864    0.52763   1.00
H1       0.20276    0.29021    0.46694   1.00
C5       0.28994    0.18991    0.52165   1.00
C5       0.29378    0.19164    0.48002   1.00
H1       0.20897    0.29937    0.59549   1.00
H1       0.20461    0.28907    0.39909   1.00
H1       0.28019    0.20098    0.59948   1.00
H1       0.28743    0.20015    0.40152   1.00
C6       0.30905    0.15752    0.54485   1.00
C6       0.32261    0.16573    0.45881   1.00
H2       0.28845    0.14675    0.56655   1.00
H2       0.33789    0.18297    0.43690   1.00
H2       0.31382    0.13165    0.52714   1.00
H2       0.34646    0.15680    0.47772   1.00
C6       0.34871    0.17000    0.56394   1.00
C6       0.30334    0.12846    0.44058   1.00
H2       0.34561    0.19890    0.57708   1.00
H2       0.27604    0.13652    0.42617   1.00
C6       0.36667    0.14218    0.59541   1.00
C6       0.32820    0.10422    0.41089   1.00
H2       0.37002    0.17367    0.54051   1.00
H2       0.29482    0.10923    0.46454   1.00
C6       0.34100    0.14026    0.63265   1.00
C6       0.33630    0.12750    0.37292   1.00
C6       0.37266    0.10038    0.57926   1.00
C6       0.36747    0.09097    0.42893   1.00
C6       0.40720    0.15841    0.60755   1.00
C6       0.30484    0.06711    0.39946   1.00
H2       0.33569    0.16940    0.64442   1.00
H2       0.30915    0.13783    0.35980   1.00
H2       0.31281    0.12685    0.62670   1.00
H2       0.35471    0.15280    0.37846   1.00
H2       0.35506    0.12299    0.65541   1.00
H2       0.35127    0.10946    0.35137   1.00
H2       0.38773    0.08198    0.60045   1.00
H2       0.38330    0.07179    0.40902   1.00
H2       0.34476    0.08657    0.57275   1.00
H2       0.38620    0.11594    0.43506   1.00
H2       0.38998    0.10098    0.55255   1.00
H2       0.36263    0.07519    0.45615   1.00
H2       0.40456    0.18780    0.61958   1.00
H2       0.27693    0.07485    0.38617   1.00
H2       0.42084    0.14007    0.62975   1.00
H2       0.32093    0.04930    0.37851   1.00
H2       0.42695    0.15973    0.58261   1.00
H2       0.29888    0.04901    0.42498   1.00
C4       0.24590    0.75249    0.48025   1.00
C4       0.24576    0.75403    0.52191   1.00
C3       0.22532    0.72328    0.45897   1.00
C3       0.22183    0.72910    0.54504   1.00
C3       0.26734    0.78096    0.45854   1.00
C3       0.27026    0.78141    0.54170   1.00
C2       0.24460    0.75047    0.39595   1.00
C2       0.24686    0.75580    0.60622   1.00
C3       0.22448    0.72236    0.41811   1.00
C3       0.22246    0.72977    0.58591   1.00
C3       0.26555    0.77913    0.41696   1.00
C3       0.27020    0.78100    0.58336   1.00
H1       0.21049    0.70136    0.47237   1.00
H1       0.20276    0.70979    0.53306   1.00
C5       0.28994    0.81009    0.47835   1.00
C5       0.29378    0.80836    0.51998   1.00
H1       0.20897    0.70063    0.40451   1.00
H1       0.20461    0.71093    0.60091   1.00
H1       0.28019    0.79902    0.40052   1.00
H1       0.28743    0.79985    0.59848   1.00
C6       0.30905    0.84248    0.45515   1.00
C6       0.32261    0.83427    0.54119   1.00
H2       0.28845    0.85325    0.43345   1.00
H2       0.33789    0.81703    0.56310   1.00
H2       0.31382    0.86835    0.47286   1.00
H2       0.34646    0.84320    0.52228   1.00
C6       0.34871    0.83000    0.43606   1.00
C6       0.30334    0.87154    0.55942   1.00
H2       0.34561    0.80110    0.42292   1.00
H2       0.27604    0.86348    0.57383   1.00
C6       0.36667    0.85782    0.40459   1.00
C6       0.32820    0.89578    0.58911   1.00
H2       0.37002    0.82633    0.45949   1.00
H2       0.29482    0.89077    0.53546   1.00
C6       0.34100    0.85974    0.36735   1.00
C6       0.33630    0.87250    0.62708   1.00
C6       0.37266    0.89962    0.42074   1.00
C6       0.36747    0.90903    0.57107   1.00
C6       0.40720    0.84159    0.39245   1.00
C6       0.30484    0.93289    0.60054   1.00
H2       0.33569    0.83060    0.35558   1.00
H2       0.30915    0.86217    0.64020   1.00
H2       0.31281    0.87315    0.37330   1.00
H2       0.35471    0.84720    0.62154   1.00
H2       0.35506    0.87701    0.34459   1.00
H2       0.35127    0.89054    0.64863   1.00
H2       0.38773    0.91802    0.39955   1.00
H2       0.38330    0.92821    0.59098   1.00
H2       0.34476    0.91343    0.42725   1.00
H2       0.38620    0.88406    0.56494   1.00
H2       0.38998    0.89902    0.44745   1.00
H2       0.36263    0.92481    0.54385   1.00
H2       0.40456    0.81220    0.38042   1.00
H2       0.27693    0.92515    0.61383   1.00
H2       0.42084    0.85993    0.37025   1.00
H2       0.32093    0.95070    0.62149   1.00
H2       0.42695    0.84027    0.41739   1.00
H2       0.29888    0.95099    0.57502   1.00
C4       0.25249    0.98025    0.24590   1.00
C4       0.25403    1.02191    0.24576   1.00
C3       0.22328    0.95897    0.22532   1.00
C3       0.22910    1.04504    0.22183   1.00
C3       0.28096    0.95854    0.26734   1.00
C3       0.28141    1.04170    0.27026   1.00
C2       0.25047    0.89595    0.24460   1.00
C2       0.25580    1.10622    0.24686   1.00
C3       0.22236    0.91811    0.22448   1.00
C3       0.22977    1.08591    0.22246   1.00
C3       0.27913    0.91696    0.26555   1.00
C3       0.28100    1.08336    0.27020   1.00
H1       0.20136    0.97237    0.21049   1.00
H1       0.20979    1.03306    0.20276   1.00
C5       0.31009    0.97835    0.28994   1.00
C5       0.30836    1.01998    0.29378   1.00
H1       0.20063    0.90451    0.20897   1.00
H1       0.21093    1.10091    0.20461   1.00
H1       0.29902    0.90052    0.28019   1.00
H1       0.29985    1.09848    0.28743   1.00
C6       0.34248    0.95515    0.30905   1.00
C6       0.33427    1.04119    0.32261   1.00
H2       0.35325    0.93345    0.28845   1.00
H2       0.31703    1.06310    0.33789   1.00
H2       0.36835    0.97286    0.31382   1.00
H2       0.34320    1.02228    0.34646   1.00
C6       0.33000    0.93606    0.34871   1.00
C6       0.37154    1.05942    0.30334   1.00
H2       0.30110    0.92292    0.34561   1.00
H2       0.36348    1.07383    0.27604   1.00
C6       0.35782    0.90459    0.36667   1.00
C6       0.39578    1.08911    0.32820   1.00
H2       0.32633    0.95949    0.37002   1.00
H2       0.39077    1.03546    0.29482   1.00
C6       0.35974    0.86735    0.34100   1.00
C6       0.37250    1.12708    0.33630   1.00
C6       0.39962    0.92074    0.37266   1.00
C6       0.40903    1.07107    0.36747   1.00
C6       0.34159    0.89245    0.40720   1.00
C6       0.43289    1.10054    0.30484   1.00
H2       0.33060    0.85558    0.33569   1.00
H2       0.36217    1.14020    0.30915   1.00
H2       0.37315    0.87330    0.31281   1.00
H2       0.34720    1.12154    0.35471   1.00
H2       0.37701    0.84459    0.35506   1.00
H2       0.39054    1.14863    0.35127   1.00
H2       0.41802    0.89955    0.38773   1.00
H2       0.42821    1.09098    0.38330   1.00
H2       0.41343    0.92725    0.34476   1.00
H2       0.38406    1.06494    0.38620   1.00
H2       0.39902    0.94745    0.38998   1.00
H2       0.42481    1.04385    0.36263   1.00
H2       0.31220    0.88042    0.40456   1.00
H2       0.42515    1.11383    0.27693   1.00
H2       0.35993    0.87025    0.42084   1.00
H2       0.45070    1.12149    0.32093   1.00
H2       0.34027    0.91739    0.42695   1.00
H2       0.45099    1.07502    0.29888   1.00
C4       0.01975    0.74590    0.24751   1.00
C4       -0.02191   0.74576    0.24597   1.00
C3       0.04103    0.72532    0.27672   1.00
C3       -0.04504   0.72183    0.27090   1.00
C3       0.04146    0.76734    0.21904   1.00
C3       -0.04170   0.77026    0.21859   1.00
C2       0.10405    0.74460    0.24953   1.00
C2       -0.10622   0.74686    0.24420   1.00
C3       0.08189    0.72448    0.27764   1.00
C3       -0.08591   0.72246    0.27023   1.00
C3       0.08304    0.76555    0.22087   1.00
C3       -0.08336   0.77020    0.21900   1.00
H1       0.02763    0.71049    0.29864   1.00
H1       -0.03306   0.70276    0.29021   1.00
C5       0.02165    0.78994    0.18991   1.00
C5       -0.01998   0.79378    0.19164   1.00
H1       0.09549    0.70897    0.29937   1.00
H1       -0.10091   0.70461    0.28907   1.00
H1       0.09948    0.78019    0.20098   1.00
H1       -0.09848   0.78743    0.20015   1.00
C6       0.04485    0.80905    0.15752   1.00
C6       -0.04119   0.82261    0.16573   1.00
H2       0.06655    0.78845    0.14675   1.00
H2       -0.06310   0.83789    0.18297   1.00
H2       0.02714    0.81382    0.13165   1.00
H2       -0.02228   0.84646    0.15680   1.00
C6       0.06394    0.84871    0.17000   1.00
C6       -0.05942   0.80334    0.12846   1.00
H2       0.07708    0.84561    0.19890   1.00
H2       -0.07383   0.77604    0.13652   1.00
C6       0.09541    0.86667    0.14218   1.00
C6       -0.08911   0.82820    0.10422   1.00
H2       0.04051    0.87002    0.17367   1.00
H2       -0.03546   0.79482    0.10923   1.00
C6       0.13265    0.84100    0.14026   1.00
C6       -0.12708   0.83630    0.12750   1.00
C6       0.07926    0.87266    0.10038   1.00
C6       -0.07107   0.86747    0.09097   1.00
C6       0.10755    0.90720    0.15841   1.00
C6       -0.10054   0.80484    0.06711   1.00
H2       0.14442    0.83569    0.16940   1.00
H2       -0.14020   0.80915    0.13783   1.00
H2       0.12670    0.81281    0.12685   1.00
H2       -0.12154   0.85471    0.15280   1.00
H2       0.15541    0.85506    0.12299   1.00
H2       -0.14863   0.85127    0.10946   1.00
H2       0.10045    0.88773    0.08198   1.00
H2       -0.09098   0.88330    0.07179   1.00
H2       0.07275    0.84476    0.08657   1.00
H2       -0.06494   0.88620    0.11594   1.00
H2       0.05255    0.88998    0.10098   1.00
H2       -0.04385   0.86263    0.07519   1.00
H2       0.11958    0.90456    0.18780   1.00
H2       -0.11383   0.77693    0.07485   1.00
H2       0.12975    0.92084    0.14007   1.00
H2       -0.12149   0.82093    0.04930   1.00
H2       0.08261    0.92695    0.15973   1.00
H2       -0.07502   0.79888    0.04901   1.00
C4       0.48025    0.74590    0.25249   1.00
C4       0.52191    0.74576    0.25403   1.00
C3       0.45897    0.72532    0.22328   1.00
C3       0.54504    0.72183    0.22910   1.00
C3       0.45854    0.76734    0.28096   1.00
C3       0.54170    0.77026    0.28141   1.00
C2       0.39595    0.74460    0.25047   1.00
C2       0.60622    0.74686    0.25580   1.00
C3       0.41811    0.72448    0.22236   1.00
C3       0.58591    0.72246    0.22977   1.00
C3       0.41696    0.76555    0.27913   1.00
C3       0.58336    0.77020    0.28100   1.00
H1       0.47237    0.71049    0.20136   1.00
H1       0.53306    0.70276    0.20979   1.00
C5       0.47835    0.78994    0.31009   1.00
C5       0.51998    0.79378    0.30836   1.00
H1       0.40451    0.70897    0.20063   1.00
H1       0.60091    0.70461    0.21093   1.00
H1       0.40052    0.78019    0.29902   1.00
H1       0.59848    0.78743    0.29985   1.00
C6       0.45515    0.80905    0.34248   1.00
C6       0.54119    0.82261    0.33427   1.00
H2       0.43345    0.78845    0.35325   1.00
H2       0.56310    0.83789    0.31703   1.00
H2       0.47286    0.81382    0.36835   1.00
H2       0.52228    0.84646    0.34320   1.00
C6       0.43606    0.84871    0.33000   1.00
C6       0.55942    0.80334    0.37154   1.00
H2       0.42292    0.84561    0.30110   1.00
H2       0.57383    0.77604    0.36348   1.00
C6       0.40459    0.86667    0.35782   1.00
C6       0.58911    0.82820    0.39578   1.00
H2       0.45949    0.87002    0.32633   1.00
H2       0.53546    0.79482    0.39077   1.00
C6       0.36735    0.84100    0.35974   1.00
C6       0.62708    0.83630    0.37250   1.00
C6       0.42074    0.87266    0.39962   1.00
C6       0.57107    0.86747    0.40903   1.00
C6       0.39245    0.90720    0.34159   1.00
C6       0.60054    0.80484    0.43289   1.00
H2       0.35558    0.83569    0.33060   1.00
H2       0.64020    0.80915    0.36217   1.00
H2       0.37330    0.81281    0.37315   1.00
H2       0.62154    0.85471    0.34720   1.00
H2       0.34459    0.85506    0.37701   1.00
H2       0.64863    0.85127    0.39054   1.00
H2       0.39955    0.88773    0.41802   1.00
H2       0.59098    0.88330    0.42821   1.00
H2       0.42725    0.84476    0.41343   1.00
H2       0.56494    0.88620    0.38406   1.00
H2       0.44745    0.88998    0.39902   1.00
H2       0.54385    0.86263    0.42481   1.00
H2       0.38042    0.90456    0.31220   1.00
H2       0.61383    0.77693    0.42515   1.00
H2       0.37025    0.92084    0.35993   1.00
H2       0.62149    0.82093    0.45070   1.00
H2       0.41739    0.92695    0.34027   1.00
H2       0.57502    0.79888    0.45099   1.00
C4       0.24751    0.51975    0.24590   1.00
C4       0.24597    0.47809    0.24576   1.00
C3       0.27672    0.54103    0.22532   1.00
C3       0.27090    0.45496    0.22183   1.00
C3       0.21904    0.54146    0.26734   1.00
C3       0.21859    0.45830    0.27026   1.00
C2       0.24953    0.60405    0.24460   1.00
C2       0.24420    0.39378    0.24686   1.00
C3       0.27764    0.58189    0.22448   1.00
C3       0.27023    0.41409    0.22246   1.00
C3       0.22087    0.58304    0.26555   1.00
C3       0.21900    0.41664    0.27020   1.00
H1       0.29864    0.52763    0.21049   1.00
H1       0.29021    0.46694    0.20276   1.00
C5       0.18991    0.52165    0.28994   1.00
C5       0.19164    0.48002    0.29378   1.00
H1       0.29937    0.59549    0.20897   1.00
H1       0.28907    0.39909    0.20461   1.00
H1       0.20098    0.59948    0.28019   1.00
H1       0.20015    0.40152    0.28743   1.00
C6       0.15752    0.54485    0.30905   1.00
C6       0.16573    0.45881    0.32261   1.00
H2       0.14675    0.56655    0.28845   1.00
H2       0.18297    0.43690    0.33789   1.00
H2       0.13165    0.52714    0.31382   1.00
H2       0.15680    0.47772    0.34646   1.00
C6       0.17000    0.56394    0.34871   1.00
C6       0.12846    0.44058    0.30334   1.00
H2       0.19890    0.57708    0.34561   1.00
H2       0.13652    0.42617    0.27604   1.00
C6       0.14218    0.59541    0.36667   1.00
C6       0.10422    0.41089    0.32820   1.00
H2       0.17367    0.54051    0.37002   1.00
H2       0.10923    0.46454    0.29482   1.00
C6       0.14026    0.63265    0.34100   1.00
C6       0.12750    0.37292    0.33630   1.00
C6       0.10038    0.57926    0.37266   1.00
C6       0.09097    0.42893    0.36747   1.00
C6       0.15841    0.60755    0.40720   1.00
C6       0.06711    0.39946    0.30484   1.00
H2       0.16940    0.64442    0.33569   1.00
H2       0.13783    0.35980    0.30915   1.00
H2       0.12685    0.62670    0.31281   1.00
H2       0.15280    0.37846    0.35471   1.00
H2       0.12299    0.65541    0.35506   1.00
H2       0.10946    0.35137    0.35127   1.00
H2       0.08198    0.60045    0.38773   1.00
H2       0.07179    0.40902    0.38330   1.00
H2       0.08657    0.57275    0.34476   1.00
H2       0.11594    0.43506    0.38620   1.00
H2       0.10098    0.55255    0.38998   1.00
H2       0.07519    0.45615    0.36263   1.00
H2       0.18780    0.61958    0.40456   1.00
H2       0.07485    0.38617    0.27693   1.00
H2       0.14007    0.62975    0.42084   1.00
H2       0.04930    0.37851    0.32093   1.00
H2       0.15973    0.58261    0.42695   1.00
H2       0.04901    0.42498    0.29888   1.00
C4       0.24590    0.74751    0.01975   1.00
C4       0.24576    0.74597    -0.02191   1.00
C3       0.22532    0.77672    0.04103   1.00
C3       0.22183    0.77090    -0.04504   1.00
C3       0.26734    0.71904    0.04146   1.00
C3       0.27026    0.71859    -0.04170   1.00
C2       0.24460    0.74953    0.10405   1.00
C2       0.24686    0.74420    -0.10622   1.00
C3       0.22448    0.77764    0.08189   1.00
C3       0.22246    0.77023    -0.08591   1.00
C3       0.26555    0.72087    0.08304   1.00
C3       0.27020    0.71900    -0.08336   1.00
H1       0.21049    0.79864    0.02763   1.00
H1       0.20276    0.79021    -0.03306   1.00
C5       0.28994    0.68991    0.02165   1.00
C5       0.29378    0.69164    -0.01998   1.00
H1       0.20897    0.79937    0.09549   1.00
H1       0.20461    0.78907    -0.10091   1.00
H1       0.28019    0.70098    0.09948   1.00
H1       0.28743    0.70015    -0.09848   1.00
C6       0.30905    0.65752    0.04485   1.00
C6       0.32261    0.66573    -0.04119   1.00
H2       0.28845    0.64675    0.06655   1.00
H2       0.33789    0.68297    -0.06310   1.00
H2       0.31382    0.63165    0.02714   1.00
H2       0.34646    0.65680    -0.02228   1.00
C6       0.34871    0.67000    0.06394   1.00
C6       0.30334    0.62846    -0.05942   1.00
H2       0.34561    0.69890    0.07708   1.00
H2       0.27604    0.63652    -0.07383   1.00
C6       0.36667    0.64218    0.09541   1.00
C6       0.32820    0.60422    -0.08911   1.00
H2       0.37002    0.67367    0.04051   1.00
H2       0.29482    0.60923    -0.03546   1.00
C6       0.34100    0.64026    0.13265   1.00
C6       0.33630    0.62750    -0.12708   1.00
C6       0.37266    0.60038    0.07926   1.00
C6       0.36747    0.59097    -0.07107   1.00
C6       0.40720    0.65841    0.10755   1.00
C6       0.30484    0.56711    -0.10054   1.00
H2       0.33569    0.66940    0.14442   1.00
H2       0.30915    0.63783    -0.14020   1.00
H2       0.31281    0.62685    0.12670   1.00
H2       0.35471    0.65280    -0.12154   1.00
H2       0.35506    0.62299    0.15541   1.00
H2       0.35127    0.60946    -0.14863   1.00
H2       0.38773    0.58198    0.10045   1.00
H2       0.38330    0.57179    -0.09098   1.00
H2       0.34476    0.58657    0.07275   1.00
H2       0.38620    0.61594    -0.06494   1.00
H2       0.38998    0.60098    0.05255   1.00
H2       0.36263    0.57519    -0.04385   1.00
H2       0.40456    0.68780    0.11958   1.00
H2       0.27693    0.57485    -0.11383   1.00
H2       0.42084    0.64007    0.12975   1.00
H2       0.32093    0.54930    -0.12149   1.00
H2       0.42695    0.65973    0.08261   1.00
H2       0.29888    0.54901    -0.07502   1.00
C4       0.74590    0.25249    0.48025   1.00
C4       0.74576    0.25403    0.52191   1.00
C3       0.72532    0.22328    0.45897   1.00
C3       0.72183    0.22910    0.54504   1.00
C3       0.76734    0.28096    0.45854   1.00
C3       0.77026    0.28141    0.54170   1.00
C2       0.74460    0.25047    0.39595   1.00
C2       0.74686    0.25580    0.60622   1.00
C3       0.72448    0.22236    0.41811   1.00
C3       0.72246    0.22977    0.58591   1.00
C3       0.76555    0.27913    0.41696   1.00
C3       0.77020    0.28100    0.58336   1.00
H1       0.71049    0.20136    0.47237   1.00
H1       0.70276    0.20979    0.53306   1.00
C5       0.78994    0.31009    0.47835   1.00
C5       0.79378    0.30836    0.51998   1.00
H1       0.70897    0.20063    0.40451   1.00
H1       0.70461    0.21093    0.60091   1.00
H1       0.78019    0.29902    0.40052   1.00
H1       0.78743    0.29985    0.59848   1.00
C6       0.80905    0.34248    0.45515   1.00
C6       0.82261    0.33427    0.54119   1.00
H2       0.78845    0.35325    0.43345   1.00
H2       0.83789    0.31703    0.56310   1.00
H2       0.81382    0.36835    0.47286   1.00
H2       0.84646    0.34320    0.52228   1.00
C6       0.84871    0.33000    0.43606   1.00
C6       0.80334    0.37154    0.55942   1.00
H2       0.84561    0.30110    0.42292   1.00
H2       0.77604    0.36348    0.57383   1.00
C6       0.86667    0.35782    0.40459   1.00
C6       0.82820    0.39578    0.58911   1.00
H2       0.87002    0.32633    0.45949   1.00
H2       0.79482    0.39077    0.53546   1.00
C6       0.84100    0.35974    0.36735   1.00
C6       0.83630    0.37250    0.62708   1.00
C6       0.87266    0.39962    0.42074   1.00
C6       0.86747    0.40903    0.57107   1.00
C6       0.90720    0.34159    0.39245   1.00
C6       0.80484    0.43289    0.60054   1.00
H2       0.83569    0.33060    0.35558   1.00
H2       0.80915    0.36217    0.64020   1.00
H2       0.81281    0.37315    0.37330   1.00
H2       0.85471    0.34720    0.62154   1.00
H2       0.85506    0.37701    0.34459   1.00
H2       0.85127    0.39054    0.64863   1.00
H2       0.88773    0.41802    0.39955   1.00
H2       0.88330    0.42821    0.59098   1.00
H2       0.84476    0.41343    0.42725   1.00
H2       0.88620    0.38406    0.56494   1.00
H2       0.88998    0.39902    0.44745   1.00
H2       0.86263    0.42481    0.54385   1.00
H2       0.90456    0.31220    0.38042   1.00
H2       0.77693    0.42515    0.61383   1.00
H2       0.92084    0.35993    0.37025   1.00
H2       0.82093    0.45070    0.62149   1.00
H2       0.92695    0.34027    0.41739   1.00
H2       0.79888    0.45099    0.57502   1.00
C4       0.75249    0.48025    0.24590   1.00
C4       0.75403    0.52191    0.24576   1.00
C3       0.72328    0.45897    0.22532   1.00
C3       0.72910    0.54504    0.22183   1.00
C3       0.78096    0.45854    0.26734   1.00
C3       0.78141    0.54170    0.27026   1.00
C2       0.75047    0.39595    0.24460   1.00
C2       0.75580    0.60622    0.24686   1.00
C3       0.72236    0.41811    0.22448   1.00
C3       0.72977    0.58591    0.22246   1.00
C3       0.77913    0.41696    0.26555   1.00
C3       0.78100    0.58336    0.27020   1.00
H1       0.70136    0.47237    0.21049   1.00
H1       0.70979    0.53306    0.20276   1.00
C5       0.81009    0.47835    0.28994   1.00
C5       0.80836    0.51998    0.29378   1.00
H1       0.70063    0.40451    0.20897   1.00
H1       0.71093    0.60091    0.20461   1.00
H1       0.79902    0.40052    0.28019   1.00
H1       0.79985    0.59848    0.28743   1.00
C6       0.84248    0.45515    0.30905   1.00
C6       0.83427    0.54119    0.32261   1.00
H2       0.85325    0.43345    0.28845   1.00
H2       0.81703    0.56310    0.33789   1.00
H2       0.86835    0.47286    0.31382   1.00
H2       0.84320    0.52228    0.34646   1.00
C6       0.83000    0.43606    0.34871   1.00
C6       0.87154    0.55942    0.30334   1.00
H2       0.80110    0.42292    0.34561   1.00
H2       0.86348    0.57383    0.27604   1.00
C6       0.85782    0.40459    0.36667   1.00
C6       0.89578    0.58911    0.32820   1.00
H2       0.82633    0.45949    0.37002   1.00
H2       0.89077    0.53546    0.29482   1.00
C6       0.85974    0.36735    0.34100   1.00
C6       0.87250    0.62708    0.33630   1.00
C6       0.89962    0.42074    0.37266   1.00
C6       0.90903    0.57107    0.36747   1.00
C6       0.84159    0.39245    0.40720   1.00
C6       0.93289    0.60054    0.30484   1.00
H2       0.83060    0.35558    0.33569   1.00
H2       0.86217    0.64020    0.30915   1.00
H2       0.87315    0.37330    0.31281   1.00
H2       0.84720    0.62154    0.35471   1.00
H2       0.87701    0.34459    0.35506   1.00
H2       0.89054    0.64863    0.35127   1.00
H2       0.91802    0.39955    0.38773   1.00
H2       0.92821    0.59098    0.38330   1.00
H2       0.91343    0.42725    0.34476   1.00
H2       0.88406    0.56494    0.38620   1.00
H2       0.89902    0.44745    0.38998   1.00
H2       0.92481    0.54385    0.36263   1.00
H2       0.81220    0.38042    0.40456   1.00
H2       0.92515    0.61383    0.27693   1.00
H2       0.85993    0.37025    0.42084   1.00
H2       0.95070    0.62149    0.32093   1.00
H2       0.84027    0.41739    0.42695   1.00
H2       0.95099    0.57502    0.29888   1.00
C4       0.51975    0.24590    0.24751   1.00
C4       0.47809    0.24576    0.24597   1.00
C3       0.54103    0.22532    0.27672   1.00
C3       0.45496    0.22183    0.27090   1.00
C3       0.54146    0.26734    0.21904   1.00
C3       0.45830    0.27026    0.21859   1.00
C2       0.60405    0.24460    0.24953   1.00
C2       0.39378    0.24686    0.24420   1.00
C3       0.58189    0.22448    0.27764   1.00
C3       0.41409    0.22246    0.27023   1.00
C3       0.58304    0.26555    0.22087   1.00
C3       0.41664    0.27020    0.21900   1.00
H1       0.52763    0.21049    0.29864   1.00
H1       0.46694    0.20276    0.29021   1.00
C5       0.52165    0.28994    0.18991   1.00
C5       0.48002    0.29378    0.19164   1.00
H1       0.59549    0.20897    0.29937   1.00
H1       0.39909    0.20461    0.28907   1.00
H1       0.59948    0.28019    0.20098   1.00
H1       0.40152    0.28743    0.20015   1.00
C6       0.54485    0.30905    0.15752   1.00
C6       0.45881    0.32261    0.16573   1.00
H2       0.56655    0.28845    0.14675   1.00
H2       0.43690    0.33789    0.18297   1.00
H2       0.52714    0.31382    0.13165   1.00
H2       0.47772    0.34646    0.15680   1.00
C6       0.56394    0.34871    0.17000   1.00
C6       0.44058    0.30334    0.12846   1.00
H2       0.57708    0.34561    0.19890   1.00
H2       0.42617    0.27604    0.13652   1.00
C6       0.59541    0.36667    0.14218   1.00
C6       0.41089    0.32820    0.10422   1.00
H2       0.54051    0.37002    0.17367   1.00
H2       0.46454    0.29482    0.10923   1.00
C6       0.63265    0.34100    0.14026   1.00
C6       0.37292    0.33630    0.12750   1.00
C6       0.57926    0.37266    0.10038   1.00
C6       0.42893    0.36747    0.09097   1.00
C6       0.60755    0.40720    0.15841   1.00
C6       0.39946    0.30484    0.06711   1.00
H2       0.64442    0.33569    0.16940   1.00
H2       0.35980    0.30915    0.13783   1.00
H2       0.62670    0.31281    0.12685   1.00
H2       0.37846    0.35471    0.15280   1.00
H2       0.65541    0.35506    0.12299   1.00
H2       0.35137    0.35127    0.10946   1.00
H2       0.60045    0.38773    0.08198   1.00
H2       0.40902    0.38330    0.07179   1.00
H2       0.57275    0.34476    0.08657   1.00
H2       0.43506    0.38620    0.11594   1.00
H2       0.55255    0.38998    0.10098   1.00
H2       0.45615    0.36263    0.07519   1.00
H2       0.61958    0.40456    0.18780   1.00
H2       0.38617    0.27693    0.07485   1.00
H2       0.62975    0.42084    0.14007   1.00
H2       0.37851    0.32093    0.04930   1.00
H2       0.58261    0.42695    0.15973   1.00
H2       0.42498    0.29888    0.04901   1.00
C4       0.98025    0.24590    0.25249   1.00
C4       1.02191    0.24576    0.25403   1.00
C3       0.95897    0.22532    0.22328   1.00
C3       1.04504    0.22183    0.22910   1.00
C3       0.95854    0.26734    0.28096   1.00
C3       1.04170    0.27026    0.28141   1.00
C2       0.89595    0.24460    0.25047   1.00
C2       1.10622    0.24686    0.25580   1.00
C3       0.91811    0.22448    0.22236   1.00
C3       1.08591    0.22246    0.22977   1.00
C3       0.91696    0.26555    0.27913   1.00
C3       1.08336    0.27020    0.28100   1.00
H1       0.97237    0.21049    0.20136   1.00
H1       1.03306    0.20276    0.20979   1.00
C5       0.97835    0.28994    0.31009   1.00
C5       1.01998    0.29378    0.30836   1.00
H1       0.90451    0.20897    0.20063   1.00
H1       1.10091    0.20461    0.21093   1.00
H1       0.90052    0.28019    0.29902   1.00
H1       1.09848    0.28743    0.29985   1.00
C6       0.95515    0.30905    0.34248   1.00
C6       1.04119    0.32261    0.33427   1.00
H2       0.93345    0.28845    0.35325   1.00
H2       1.06310    0.33789    0.31703   1.00
H2       0.97286    0.31382    0.36835   1.00
H2       1.02228    0.34646    0.34320   1.00
C6       0.93606    0.34871    0.33000   1.00
C6       1.05942    0.30334    0.37154   1.00
H2       0.92292    0.34561    0.30110   1.00
H2       1.07383    0.27604    0.36348   1.00
C6       0.90459    0.36667    0.35782   1.00
C6       1.08911    0.32820    0.39578   1.00
H2       0.95949    0.37002    0.32633   1.00
H2       1.03546    0.29482    0.39077   1.00
C6       0.86735    0.34100    0.35974   1.00
C6       1.12708    0.33630    0.37250   1.00
C6       0.92074    0.37266    0.39962   1.00
C6       1.07107    0.36747    0.40903   1.00
C6       0.89245    0.40720    0.34159   1.00
C6       1.10054    0.30484    0.43289   1.00
H2       0.85558    0.33569    0.33060   1.00
H2       1.14020    0.30915    0.36217   1.00
H2       0.87330    0.31281    0.37315   1.00
H2       1.12154    0.35471    0.34720   1.00
H2       0.84459    0.35506    0.37701   1.00
H2       1.14863    0.35127    0.39054   1.00
H2       0.89955    0.38773    0.41802   1.00
H2       1.09098    0.38330    0.42821   1.00
H2       0.92725    0.34476    0.41343   1.00
H2       1.06494    0.38620    0.38406   1.00
H2       0.94745    0.38998    0.39902   1.00
H2       1.04385    0.36263    0.42481   1.00
H2       0.88042    0.40456    0.31220   1.00
H2       1.11383    0.27693    0.42515   1.00
H2       0.87025    0.42084    0.35993   1.00
H2       1.12149    0.32093    0.45070   1.00
H2       0.91739    0.42695    0.34027   1.00
H2       1.07502    0.29888    0.45099   1.00
C4       0.74751    0.01975    0.24590   1.00
C4       0.74597    -0.02191   0.24576   1.00
C3       0.77672    0.04103    0.22532   1.00
C3       0.77090    -0.04504   0.22183   1.00
C3       0.71904    0.04146    0.26734   1.00
C3       0.71859    -0.04170   0.27026   1.00
C2       0.74953    0.10405    0.24460   1.00
C2       0.74420    -0.10622   0.24686   1.00
C3       0.77764    0.08189    0.22448   1.00
C3       0.77023    -0.08591   0.22246   1.00
C3       0.72087    0.08304    0.26555   1.00
C3       0.71900    -0.08336   0.27020   1.00
H1       0.79864    0.02763    0.21049   1.00
H1       0.79021    -0.03306   0.20276   1.00
C5       0.68991    0.02165    0.28994   1.00
C5       0.69164    -0.01998   0.29378   1.00
H1       0.79937    0.09549    0.20897   1.00
H1       0.78907    -0.10091   0.20461   1.00
H1       0.70098    0.09948    0.28019   1.00
H1       0.70015    -0.09848   0.28743   1.00
C6       0.65752    0.04485    0.30905   1.00
C6       0.66573    -0.04119   0.32261   1.00
H2       0.64675    0.06655    0.28845   1.00
H2       0.68297    -0.06310   0.33789   1.00
H2       0.63165    0.02714    0.31382   1.00
H2       0.65680    -0.02228   0.34646   1.00
C6       0.67000    0.06394    0.34871   1.00
C6       0.62846    -0.05942   0.30334   1.00
H2       0.69890    0.07708    0.34561   1.00
H2       0.63652    -0.07383   0.27604   1.00
C6       0.64218    0.09541    0.36667   1.00
C6       0.60422    -0.08911   0.32820   1.00
H2       0.67367    0.04051    0.37002   1.00
H2       0.60923    -0.03546   0.29482   1.00
C6       0.64026    0.13265    0.34100   1.00
C6       0.62750    -0.12708   0.33630   1.00
C6       0.60038    0.07926    0.37266   1.00
C6       0.59097    -0.07107   0.36747   1.00
C6       0.65841    0.10755    0.40720   1.00
C6       0.56711    -0.10054   0.30484   1.00
H2       0.66940    0.14442    0.33569   1.00
H2       0.63783    -0.14020   0.30915   1.00
H2       0.62685    0.12670    0.31281   1.00
H2       0.65280    -0.12154   0.35471   1.00
H2       0.62299    0.15541    0.35506   1.00
H2       0.60946    -0.14863   0.35127   1.00
H2       0.58198    0.10045    0.38773   1.00
H2       0.57179    -0.09098   0.38330   1.00
H2       0.58657    0.07275    0.34476   1.00
H2       0.61594    -0.06494   0.38620   1.00
H2       0.60098    0.05255    0.38998   1.00
H2       0.57519    -0.04385   0.36263   1.00
H2       0.68780    0.11958    0.40456   1.00
H2       0.57485    -0.11383   0.27693   1.00
H2       0.64007    0.12975    0.42084   1.00
H2       0.54930    -0.12149   0.32093   1.00
H2       0.65973    0.08261    0.42695   1.00
H2       0.54901    -0.07502   0.29888   1.00
C4       0.74590    0.24751    0.01975   1.00
C4       0.74576    0.24597    -0.02191   1.00
C3       0.72532    0.27672    0.04103   1.00
C3       0.72183    0.27090    -0.04504   1.00
C3       0.76734    0.21904    0.04146   1.00
C3       0.77026    0.21859    -0.04170   1.00
C2       0.74460    0.24953    0.10405   1.00
C2       0.74686    0.24420    -0.10622   1.00
C3       0.72448    0.27764    0.08189   1.00
C3       0.72246    0.27023    -0.08591   1.00
C3       0.76555    0.22087    0.08304   1.00
C3       0.77020    0.21900    -0.08336   1.00
H1       0.71049    0.29864    0.02763   1.00
H1       0.70276    0.29021    -0.03306   1.00
C5       0.78994    0.18991    0.02165   1.00
C5       0.79378    0.19164    -0.01998   1.00
H1       0.70897    0.29937    0.09549   1.00
H1       0.70461    0.28907    -0.10091   1.00
H1       0.78019    0.20098    0.09948   1.00
H1       0.78743    0.20015    -0.09848   1.00
C6       0.80905    0.15752    0.04485   1.00
C6       0.82261    0.16573    -0.04119   1.00
H2       0.78845    0.14675    0.06655   1.00
H2       0.83789    0.18297    -0.06310   1.00
H2       0.81382    0.13165    0.02714   1.00
H2       0.84646    0.15680    -0.02228   1.00
C6       0.84871    0.17000    0.06394   1.00
C6       0.80334    0.12846    -0.05942   1.00
H2       0.84561    0.19890    0.07708   1.00
H2       0.77604    0.13652    -0.07383   1.00
C6       0.86667    0.14218    0.09541   1.00
C6       0.82820    0.10422    -0.08911   1.00
H2       0.87002    0.17367    0.04051   1.00
H2       0.79482    0.10923    -0.03546   1.00
C6       0.84100    0.14026    0.13265   1.00
C6       0.83630    0.12750    -0.12708   1.00
C6       0.87266    0.10038    0.07926   1.00
C6       0.86747    0.09097    -0.07107   1.00
C6       0.90720    0.15841    0.10755   1.00
C6       0.80484    0.06711    -0.10054   1.00
H2       0.83569    0.16940    0.14442   1.00
H2       0.80915    0.13783    -0.14020   1.00
H2       0.81281    0.12685    0.12670   1.00
H2       0.85471    0.15280    -0.12154   1.00
H2       0.85506    0.12299    0.15541   1.00
H2       0.85127    0.10946    -0.14863   1.00
H2       0.88773    0.08198    0.10045   1.00
H2       0.88330    0.07179    -0.09098   1.00
H2       0.84476    0.08657    0.07275   1.00
H2       0.88620    0.11594    -0.06494   1.00
H2       0.88998    0.10098    0.05255   1.00
H2       0.86263    0.07519    -0.04385   1.00
H2       0.90456    0.18780    0.11958   1.00
H2       0.77693    0.07485    -0.11383   1.00
H2       0.92084    0.14007    0.12975   1.00
H2       0.82093    0.04930    -0.12149   1.00
H2       0.92695    0.15973    0.08261   1.00
H2       0.79888    0.04901    -0.07502   1.00
