data_IRMOF10_SG202_Ligand9_label_z.

_audit_creation_method             'generated by an auxiliary program of Tobunporous'

_symmetry_space_group_name_H-M     'P 1'
_symmetry_Int_Tables_number        1
_symmetry_cell_setting             triclinic

_cell_length_a                    34.2800
_cell_length_b                    34.2800
_cell_length_c                    34.2800
_cell_angle_alpha                 90.0000
_cell_angle_beta                  90.0000
_cell_angle_gamma                 90.0000

loop_
_atom_site_label
_atom_site_fract_x
_atom_site_fract_y
_atom_site_fract_z
_atom_site_occupancy
O1       0.75000    0.75000    0.75000   1.00
Zn1      0.71720    0.78280    0.78280   1.00
Zn1      0.78280    0.71720    0.78280   1.00
Zn1      0.78280    0.78280    0.71720   1.00
Zn1      0.71720    0.71720    0.71720   1.00
O2       0.72650    0.77350    0.83820   1.00
O2       0.72650    0.83820    0.77350   1.00
O2       0.66180    0.77350    0.77350   1.00
O2       0.77350    0.72650    0.83820   1.00
O2       0.83820    0.72650    0.77350   1.00
O2       0.77350    0.66180    0.77350   1.00
O2       0.77350    0.83820    0.72650   1.00
O2       0.83820    0.77350    0.72650   1.00
O2       0.77350    0.77350    0.66180   1.00
O2       0.66180    0.72650    0.72650   1.00
O2       0.72650    0.66180    0.72650   1.00
O2       0.72650    0.72650    0.66180   1.00
C1       0.75000    0.75000    0.85520   1.00
C1       0.75000    0.85520    0.75000   1.00
C1       0.64480    0.75000    0.75000   1.00
C1       0.85520    0.75000    0.75000   1.00
C1       0.75000    0.64480    0.75000   1.00
C1       0.75000    0.75000    0.64480   1.00
O1       0.25000    0.25000    0.75000   1.00
Zn1      0.21720    0.28280    0.78280   1.00
Zn1      0.28280    0.21720    0.78280   1.00
Zn1      0.28280    0.28280    0.71720   1.00
Zn1      0.21720    0.21720    0.71720   1.00
O2       0.22650    0.27350    0.83820   1.00
O2       0.22650    0.33820    0.77350   1.00
O2       0.16180    0.27350    0.77350   1.00
O2       0.27350    0.22650    0.83820   1.00
O2       0.33820    0.22650    0.77350   1.00
O2       0.27350    0.16180    0.77350   1.00
O2       0.27350    0.33820    0.72650   1.00
O2       0.33820    0.27350    0.72650   1.00
O2       0.27350    0.27350    0.66180   1.00
O2       0.16180    0.22650    0.72650   1.00
O2       0.22650    0.16180    0.72650   1.00
O2       0.22650    0.22650    0.66180   1.00
C1       0.25000    0.25000    0.85520   1.00
C1       0.25000    0.35520    0.75000   1.00
C1       0.14480    0.25000    0.75000   1.00
C1       0.35520    0.25000    0.75000   1.00
C1       0.25000    0.14480    0.75000   1.00
C1       0.25000    0.25000    0.64480   1.00
O1       0.25000    0.75000    0.25000   1.00
Zn1      0.21720    0.78280    0.28280   1.00
Zn1      0.28280    0.71720    0.28280   1.00
Zn1      0.28280    0.78280    0.21720   1.00
Zn1      0.21720    0.71720    0.21720   1.00
O2       0.22650    0.77350    0.33820   1.00
O2       0.22650    0.83820    0.27350   1.00
O2       0.16180    0.77350    0.27350   1.00
O2       0.27350    0.72650    0.33820   1.00
O2       0.33820    0.72650    0.27350   1.00
O2       0.27350    0.66180    0.27350   1.00
O2       0.27350    0.83820    0.22650   1.00
O2       0.33820    0.77350    0.22650   1.00
O2       0.27350    0.77350    0.16180   1.00
O2       0.16180    0.72650    0.22650   1.00
O2       0.22650    0.66180    0.22650   1.00
O2       0.22650    0.72650    0.16180   1.00
C1       0.25000    0.75000    0.35520   1.00
C1       0.25000    0.85520    0.25000   1.00
C1       0.14480    0.75000    0.25000   1.00
C1       0.35520    0.75000    0.25000   1.00
C1       0.25000    0.64480    0.25000   1.00
C1       0.25000    0.75000    0.14480   1.00
O1       0.75000    0.25000    0.25000   1.00
Zn1      0.71720    0.28280    0.28280   1.00
Zn1      0.78280    0.21720    0.28280   1.00
Zn1      0.78280    0.28280    0.21720   1.00
Zn1      0.71720    0.21720    0.21720   1.00
O2       0.72650    0.27350    0.33820   1.00
O2       0.72650    0.33820    0.27350   1.00
O2       0.66180    0.27350    0.27350   1.00
O2       0.77350    0.22650    0.33820   1.00
O2       0.83820    0.22650    0.27350   1.00
O2       0.77350    0.16180    0.27350   1.00
O2       0.77350    0.33820    0.22650   1.00
O2       0.83820    0.27350    0.22650   1.00
O2       0.77350    0.27350    0.16180   1.00
O2       0.66180    0.22650    0.22650   1.00
O2       0.72650    0.16180    0.22650   1.00
O2       0.72650    0.22650    0.16180   1.00
C1       0.75000    0.25000    0.35520   1.00
C1       0.75000    0.35520    0.25000   1.00
C1       0.64480    0.25000    0.25000   1.00
C1       0.85520    0.25000    0.25000   1.00
C1       0.75000    0.14480    0.25000   1.00
C1       0.75000    0.25000    0.14480   1.00
O1       0.25000    0.25000    0.25000   1.00
Zn1      0.28280    0.21720    0.21720   1.00
Zn1      0.21720    0.28280    0.21720   1.00
Zn1      0.21720    0.21720    0.28280   1.00
Zn1      0.28280    0.28280    0.28280   1.00
O2       0.27350    0.22650    0.16180   1.00
O2       0.27350    0.16180    0.22650   1.00
O2       0.33820    0.22650    0.22650   1.00
O2       0.22650    0.27350    0.16180   1.00
O2       0.16180    0.27350    0.22650   1.00
O2       0.22650    0.33820    0.22650   1.00
O2       0.22650    0.16180    0.27350   1.00
O2       0.16180    0.22650    0.27350   1.00
O2       0.22650    0.22650    0.33820   1.00
O2       0.33820    0.27350    0.27350   1.00
O2       0.27350    0.33820    0.27350   1.00
O2       0.27350    0.27350    0.33820   1.00
C1       0.25000    0.25000    0.14480   1.00
C1       0.25000    0.14480    0.25000   1.00
C1       0.35520    0.25000    0.25000   1.00
C1       0.14480    0.25000    0.25000   1.00
C1       0.25000    0.35520    0.25000   1.00
C1       0.25000    0.25000    0.35520   1.00
O1       0.75000    0.75000    0.25000   1.00
Zn1      0.78280    0.71720    0.21720   1.00
Zn1      0.71720    0.78280    0.21720   1.00
Zn1      0.71720    0.71720    0.28280   1.00
Zn1      0.78280    0.78280    0.28280   1.00
O2       0.77350    0.72650    0.16180   1.00
O2       0.77350    0.66180    0.22650   1.00
O2       0.83820    0.72650    0.22650   1.00
O2       0.72650    0.77350    0.16180   1.00
O2       0.66180    0.77350    0.22650   1.00
O2       0.72650    0.83820    0.22650   1.00
O2       0.72650    0.66180    0.27350   1.00
O2       0.66180    0.72650    0.27350   1.00
O2       0.72650    0.72650    0.33820   1.00
O2       0.83820    0.77350    0.27350   1.00
O2       0.77350    0.83820    0.27350   1.00
O2       0.77350    0.77350    0.33820   1.00
C1       0.75000    0.75000    0.14480   1.00
C1       0.75000    0.64480    0.25000   1.00
C1       0.85520    0.75000    0.25000   1.00
C1       0.64480    0.75000    0.25000   1.00
C1       0.75000    0.85520    0.25000   1.00
C1       0.75000    0.75000    0.35520   1.00
O1       0.75000    0.25000    0.75000   1.00
Zn1      0.78280    0.21720    0.71720   1.00
Zn1      0.71720    0.28280    0.71720   1.00
Zn1      0.71720    0.21720    0.78280   1.00
Zn1      0.78280    0.28280    0.78280   1.00
O2       0.77350    0.22650    0.66180   1.00
O2       0.77350    0.16180    0.72650   1.00
O2       0.83820    0.22650    0.72650   1.00
O2       0.72650    0.27350    0.66180   1.00
O2       0.66180    0.27350    0.72650   1.00
O2       0.72650    0.33820    0.72650   1.00
O2       0.72650    0.16180    0.77350   1.00
O2       0.66180    0.22650    0.77350   1.00
O2       0.72650    0.22650    0.83820   1.00
O2       0.83820    0.27350    0.77350   1.00
O2       0.77350    0.33820    0.77350   1.00
O2       0.77350    0.27350    0.83820   1.00
C1       0.75000    0.25000    0.64480   1.00
C1       0.75000    0.14480    0.75000   1.00
C1       0.85520    0.25000    0.75000   1.00
C1       0.64480    0.25000    0.75000   1.00
C1       0.75000    0.35520    0.75000   1.00
C1       0.75000    0.25000    0.85520   1.00
O1       0.25000    0.75000    0.75000   1.00
Zn1      0.28280    0.71720    0.71720   1.00
Zn1      0.21720    0.78280    0.71720   1.00
Zn1      0.21720    0.71720    0.78280   1.00
Zn1      0.28280    0.78280    0.78280   1.00
O2       0.27350    0.72650    0.66180   1.00
O2       0.27350    0.66180    0.72650   1.00
O2       0.33820    0.72650    0.72650   1.00
O2       0.22650    0.77350    0.66180   1.00
O2       0.16180    0.77350    0.72650   1.00
O2       0.22650    0.83820    0.72650   1.00
O2       0.22650    0.66180    0.77350   1.00
O2       0.16180    0.72650    0.77350   1.00
O2       0.22650    0.72650    0.83820   1.00
O2       0.33820    0.77350    0.77350   1.00
O2       0.27350    0.83820    0.77350   1.00
O2       0.27350    0.77350    0.83820   1.00
C1       0.25000    0.75000    0.64480   1.00
C1       0.25000    0.64480    0.75000   1.00
C1       0.35520    0.75000    0.75000   1.00
C1       0.14480    0.75000    0.75000   1.00
C1       0.25000    0.85520    0.75000   1.00
C1       0.25000    0.75000    0.85520   1.00
C4       0.75013    0.75076    0.97917   1.00
C4       0.74987    0.74924    1.02083   1.00
C3       0.77370    0.77765    0.95846   1.00
C3       0.78427    0.75369    1.04321   1.00
C3       0.72746    0.72473    0.95643   1.00
C3       0.71469    0.74412    1.04187   1.00
C2       0.75192    0.75238    0.89487   1.00
C2       0.74834    0.74781    1.10514   1.00
C3       0.77448    0.77842    0.91715   1.00
C3       0.78345    0.75291    1.08449   1.00
C3       0.72838    0.72559    0.91514   1.00
C3a      0.71374    0.74333    1.08328   1.00
H1       0.79140    0.79852    0.97425   1.00
H1       0.81212    0.75732    1.02875   1.00
H1       0.79283    0.79947    0.90240   1.00
H1       0.81045    0.75624    1.10056   1.00
H1       0.71078    0.70506    0.89882   1.00
C5       0.67526    0.73802    1.10380   1.00
H1       0.68747    0.74092    1.02622   1.00
H1       0.70944    0.70297    0.97059   1.00
H2       0.67923    0.73729    1.13599   1.00
H2       0.65634    0.76348    1.09705   1.00
N1       0.65645    0.70181    1.09125   1.00
C6       0.67047    0.66547    1.09644   1.00
C6       0.62186    0.69863    1.07288   1.00
C6       0.64466    0.63872    1.08102   1.00
C6       0.61374    0.65982    1.06604   1.00
H3       0.69796    0.65870    1.11049   1.00
H3       0.60346    0.72302    1.06484   1.00
H3       0.64799    0.60735    1.08076   1.00
H3       0.58812    0.64817    1.05180   1.00
C4       0.75076    0.97917    0.75013   1.00
C4       0.74924    1.02083    0.74987   1.00
C3       0.77765    0.95846    0.77370   1.00
C3       0.75369    1.04321    0.78427   1.00
C3       0.72473    0.95643    0.72746   1.00
C3       0.74412    1.04187    0.71469   1.00
C2       0.75238    0.89487    0.75192   1.00
C2       0.74781    1.10514    0.74834   1.00
C3       0.77842    0.91715    0.77448   1.00
C3       0.75291    1.08449    0.78345   1.00
C3       0.72559    0.91514    0.72838   1.00
C3a      0.74333    1.08328    0.71374   1.00
H1       0.79852    0.97425    0.79140   1.00
H1       0.75732    1.02875    0.81212   1.00
H1       0.79947    0.90240    0.79283   1.00
H1       0.75624    1.10056    0.81045   1.00
H1       0.70506    0.89882    0.71078   1.00
C5       0.73802    1.10380    0.67526   1.00
H1       0.74092    1.02622    0.68747   1.00
H1       0.70297    0.97059    0.70944   1.00
H2       0.73729    1.13599    0.67923   1.00
H2       0.76348    1.09705    0.65634   1.00
N1       0.70181    1.09125    0.65645   1.00
C6       0.66547    1.09644    0.67047   1.00
C6       0.69863    1.07288    0.62186   1.00
C6       0.63872    1.08102    0.64466   1.00
C6       0.65982    1.06604    0.61374   1.00
H3       0.65870    1.11049    0.69796   1.00
H3       0.72302    1.06484    0.60346   1.00
H3       0.60735    1.08076    0.64799   1.00
H3       0.64817    1.05180    0.58812   1.00
C4       0.52083    0.75013    0.74924   1.00
C4       0.47917    0.74987    0.75076   1.00
C3       0.54154    0.77370    0.72235   1.00
C3       0.45679    0.78427    0.74631   1.00
C3       0.54357    0.72746    0.77527   1.00
C3       0.45813    0.71469    0.75588   1.00
C2       0.60513    0.75192    0.74762   1.00
C2       0.39486    0.74834    0.75219   1.00
C3       0.58285    0.77448    0.72158   1.00
C3       0.41551    0.78345    0.74709   1.00
C3       0.58486    0.72838    0.77441   1.00
C3a      0.41672    0.71374    0.75667   1.00
H1       0.52575    0.79140    0.70148   1.00
H1       0.47125    0.81212    0.74268   1.00
H1       0.59760    0.79283    0.70053   1.00
H1       0.39944    0.81045    0.74376   1.00
H1       0.60118    0.71078    0.79494   1.00
C5       0.39620    0.67526    0.76198   1.00
H1       0.47378    0.68747    0.75908   1.00
H1       0.52941    0.70944    0.79703   1.00
H2       0.36401    0.67923    0.76271   1.00
H2       0.40295    0.65634    0.73652   1.00
N1       0.40875    0.65645    0.79819   1.00
C6       0.40356    0.67047    0.83453   1.00
C6       0.42712    0.62186    0.80137   1.00
C6       0.41898    0.64466    0.86128   1.00
C6       0.43396    0.61374    0.84018   1.00
H3       0.38951    0.69796    0.84130   1.00
H3       0.43516    0.60346    0.77698   1.00
H3       0.41924    0.64799    0.89265   1.00
H3       0.44820    0.58812    0.85183   1.00
C4       0.97917    0.75013    0.75076   1.00
C4       1.02083    0.74987    0.74924   1.00
C3       0.95846    0.77370    0.77765   1.00
C3       1.04321    0.78427    0.75369   1.00
C3       0.95643    0.72746    0.72473   1.00
C3       1.04187    0.71469    0.74412   1.00
C2       0.89487    0.75192    0.75238   1.00
C2       1.10514    0.74834    0.74781   1.00
C3       0.91715    0.77448    0.77842   1.00
C3       1.08449    0.78345    0.75291   1.00
C3       0.91514    0.72838    0.72559   1.00
C3a      1.08328    0.71374    0.74333   1.00
H1       0.97425    0.79140    0.79852   1.00
H1       1.02875    0.81212    0.75732   1.00
H1       0.90240    0.79283    0.79947   1.00
H1       1.10056    0.81045    0.75624   1.00
H1       0.89882    0.71078    0.70506   1.00
C5       1.10380    0.67526    0.73802   1.00
H1       1.02622    0.68747    0.74092   1.00
H1       0.97059    0.70944    0.70297   1.00
H2       1.13599    0.67923    0.73729   1.00
H2       1.09705    0.65634    0.76348   1.00
N1       1.09125    0.65645    0.70181   1.00
C6       1.09644    0.67047    0.66547   1.00
C6       1.07288    0.62186    0.69863   1.00
C6       1.08102    0.64466    0.63872   1.00
C6       1.06604    0.61374    0.65982   1.00
H3       1.11049    0.69796    0.65870   1.00
H3       1.06484    0.60346    0.72302   1.00
H3       1.08076    0.64799    0.60735   1.00
H3       1.05180    0.58812    0.64817   1.00
C4       0.74924    0.52083    0.75013   1.00
C4       0.75076    0.47917    0.74987   1.00
C3       0.72235    0.54154    0.77370   1.00
C3       0.74631    0.45679    0.78427   1.00
C3       0.77527    0.54357    0.72746   1.00
C3       0.75588    0.45813    0.71469   1.00
C2       0.74762    0.60513    0.75192   1.00
C2       0.75219    0.39486    0.74834   1.00
C3       0.72158    0.58285    0.77448   1.00
C3       0.74709    0.41551    0.78345   1.00
C3       0.77441    0.58486    0.72838   1.00
C3a      0.75667    0.41672    0.71374   1.00
H1       0.70148    0.52575    0.79140   1.00
H1       0.74268    0.47125    0.81212   1.00
H1       0.70053    0.59760    0.79283   1.00
H1       0.74376    0.39944    0.81045   1.00
H1       0.79494    0.60118    0.71078   1.00
C5       0.76198    0.39620    0.67526   1.00
H1       0.75908    0.47378    0.68747   1.00
H1       0.79703    0.52941    0.70944   1.00
H2       0.76271    0.36401    0.67923   1.00
H2       0.73652    0.40295    0.65634   1.00
N1       0.79819    0.40875    0.65645   1.00
C6       0.83453    0.40356    0.67047   1.00
C6       0.80137    0.42712    0.62186   1.00
C6       0.86128    0.41898    0.64466   1.00
C6       0.84018    0.43396    0.61374   1.00
H3       0.84130    0.38951    0.69796   1.00
H3       0.77698    0.43516    0.60346   1.00
H3       0.89265    0.41924    0.64799   1.00
H3       0.85183    0.44820    0.58812   1.00
C4       0.75013    0.74924    0.52083   1.00
C4       0.74987    0.75076    0.47917   1.00
C3       0.77370    0.72235    0.54154   1.00
C3       0.78427    0.74631    0.45679   1.00
C3       0.72746    0.77527    0.54357   1.00
C3       0.71469    0.75588    0.45813   1.00
C2       0.75192    0.74762    0.60513   1.00
C2       0.74834    0.75219    0.39486   1.00
C3       0.77448    0.72158    0.58285   1.00
C3       0.78345    0.74709    0.41551   1.00
C3       0.72838    0.77441    0.58486   1.00
C3a      0.71374    0.75667    0.41672   1.00
H1       0.79140    0.70148    0.52575   1.00
H1       0.81212    0.74268    0.47125   1.00
H1       0.79283    0.70053    0.59760   1.00
H1       0.81045    0.74376    0.39944   1.00
H1       0.71078    0.79494    0.60118   1.00
C5       0.67526    0.76198    0.39620   1.00
H1       0.68747    0.75908    0.47378   1.00
H1       0.70944    0.79703    0.52941   1.00
H2       0.67923    0.76271    0.36401   1.00
H2       0.65634    0.73652    0.40295   1.00
N1       0.65645    0.79819    0.40875   1.00
C6       0.67047    0.83453    0.40356   1.00
C6       0.62186    0.80137    0.42712   1.00
C6       0.64466    0.86128    0.41898   1.00
C6       0.61374    0.84018    0.43396   1.00
H3       0.69796    0.84130    0.38951   1.00
H3       0.60346    0.77698    0.43516   1.00
H3       0.64799    0.89265    0.41924   1.00
H3       0.58812    0.85183    0.44820   1.00
C4       0.25013    0.25076    0.97917   1.00
C4       0.24987    0.24924    1.02083   1.00
C3       0.27370    0.27765    0.95846   1.00
C3       0.28427    0.25369    1.04321   1.00
C3       0.22746    0.22473    0.95643   1.00
C3       0.21469    0.24412    1.04187   1.00
C2       0.25192    0.25238    0.89487   1.00
C2       0.24834    0.24781    1.10514   1.00
C3       0.27448    0.27842    0.91715   1.00
C3       0.28345    0.25291    1.08449   1.00
C3       0.22838    0.22559    0.91514   1.00
C3a      0.21374    0.24333    1.08328   1.00
H1       0.29140    0.29852    0.97425   1.00
H1       0.31212    0.25732    1.02875   1.00
H1       0.29283    0.29947    0.90240   1.00
H1       0.31045    0.25624    1.10056   1.00
H1       0.21078    0.20506    0.89882   1.00
C5       0.17526    0.23802    1.10380   1.00
H1       0.18747    0.24092    1.02622   1.00
H1       0.20944    0.20297    0.97059   1.00
H2       0.17923    0.23729    1.13599   1.00
H2       0.15634    0.26348    1.09705   1.00
N1       0.15645    0.20181    1.09125   1.00
C6       0.17047    0.16547    1.09644   1.00
C6       0.12186    0.19863    1.07288   1.00
C6       0.14466    0.13872    1.08102   1.00
C6       0.11374    0.15982    1.06604   1.00
H3       0.19796    0.15870    1.11049   1.00
H3       0.10346    0.22302    1.06484   1.00
H3       0.14799    0.10735    1.08076   1.00
H3       0.08812    0.14817    1.05180   1.00
C4       0.25076    0.47917    0.75013   1.00
C4       0.24924    0.52083    0.74987   1.00
C3       0.27765    0.45846    0.77370   1.00
C3       0.25369    0.54321    0.78427   1.00
C3       0.22473    0.45643    0.72746   1.00
C3       0.24412    0.54187    0.71469   1.00
C2       0.25238    0.39487    0.75192   1.00
C2       0.24781    0.60514    0.74834   1.00
C3       0.27842    0.41715    0.77448   1.00
C3       0.25291    0.58449    0.78345   1.00
C3       0.22559    0.41514    0.72838   1.00
C3a      0.24333    0.58328    0.71374   1.00
H1       0.29852    0.47425    0.79140   1.00
H1       0.25732    0.52875    0.81212   1.00
H1       0.29947    0.40240    0.79283   1.00
H1       0.25624    0.60056    0.81045   1.00
H1       0.20506    0.39882    0.71078   1.00
C5       0.23802    0.60380    0.67526   1.00
H1       0.24092    0.52622    0.68747   1.00
H1       0.20297    0.47059    0.70944   1.00
H2       0.23729    0.63599    0.67923   1.00
H2       0.26348    0.59705    0.65634   1.00
N1       0.20181    0.59125    0.65645   1.00
C6       0.16547    0.59644    0.67047   1.00
C6       0.19863    0.57288    0.62186   1.00
C6       0.13872    0.58102    0.64466   1.00
C6       0.15982    0.56604    0.61374   1.00
H3       0.15870    0.61049    0.69796   1.00
H3       0.22302    0.56484    0.60346   1.00
H3       0.10735    0.58076    0.64799   1.00
H3       0.14817    0.55180    0.58812   1.00
C4       0.02083    0.25013    0.74924   1.00
C4       -0.02083   0.24987    0.75076   1.00
C3       0.04154    0.27370    0.72235   1.00
C3       -0.04321   0.28427    0.74631   1.00
C3       0.04357    0.22746    0.77527   1.00
C3       -0.04187   0.21469    0.75588   1.00
C2       0.10513    0.25192    0.74762   1.00
C2       -0.10514   0.24834    0.75219   1.00
C3       0.08285    0.27448    0.72158   1.00
C3       -0.08449   0.28345    0.74709   1.00
C3       0.08486    0.22838    0.77441   1.00
C3a      -0.08328   0.21374    0.75667   1.00
H1       0.02575    0.29140    0.70148   1.00
H1       -0.02875   0.31212    0.74268   1.00
H1       0.09760    0.29283    0.70053   1.00
H1       -0.10056   0.31045    0.74376   1.00
H1       0.10118    0.21078    0.79494   1.00
C5       -0.10380   0.17526    0.76198   1.00
H1       -0.02622   0.18747    0.75908   1.00
H1       0.02941    0.20944    0.79703   1.00
H2       -0.13599   0.17923    0.76271   1.00
H2       -0.09705   0.15634    0.73652   1.00
N1       -0.09125   0.15645    0.79819   1.00
C6       -0.09644   0.17047    0.83453   1.00
C6       -0.07288   0.12186    0.80137   1.00
C6       -0.08102   0.14466    0.86128   1.00
C6       -0.06604   0.11374    0.84018   1.00
H3       -0.11049   0.19796    0.84130   1.00
H3       -0.06484   0.10346    0.77698   1.00
H3       -0.08076   0.14799    0.89265   1.00
H3       -0.05180   0.08812    0.85183   1.00
C4       0.47917    0.25013    0.75076   1.00
C4       0.52083    0.24987    0.74924   1.00
C3       0.45846    0.27370    0.77765   1.00
C3       0.54321    0.28427    0.75369   1.00
C3       0.45643    0.22746    0.72473   1.00
C3       0.54187    0.21469    0.74412   1.00
C2       0.39487    0.25192    0.75238   1.00
C2       0.60514    0.24834    0.74781   1.00
C3       0.41715    0.27448    0.77842   1.00
C3       0.58449    0.28345    0.75291   1.00
C3       0.41514    0.22838    0.72559   1.00
C3a      0.58328    0.21374    0.74333   1.00
H1       0.47425    0.29140    0.79852   1.00
H1       0.52875    0.31212    0.75732   1.00
H1       0.40240    0.29283    0.79947   1.00
H1       0.60056    0.31045    0.75624   1.00
H1       0.39882    0.21078    0.70506   1.00
C5       0.60380    0.17526    0.73802   1.00
H1       0.52622    0.18747    0.74092   1.00
H1       0.47059    0.20944    0.70297   1.00
H2       0.63599    0.17923    0.73729   1.00
H2       0.59705    0.15634    0.76348   1.00
N1       0.59125    0.15645    0.70181   1.00
C6       0.59644    0.17047    0.66547   1.00
C6       0.57288    0.12186    0.69863   1.00
C6       0.58102    0.14466    0.63872   1.00
C6       0.56604    0.11374    0.65982   1.00
H3       0.61049    0.19796    0.65870   1.00
H3       0.56484    0.10346    0.72302   1.00
H3       0.58076    0.14799    0.60735   1.00
H3       0.55180    0.08812    0.64817   1.00
C4       0.24924    0.02083    0.75013   1.00
C4       0.25076    -0.02083   0.74987   1.00
C3       0.22235    0.04154    0.77370   1.00
C3       0.24631    -0.04321   0.78427   1.00
C3       0.27527    0.04357    0.72746   1.00
C3       0.25588    -0.04187   0.71469   1.00
C2       0.24762    0.10513    0.75192   1.00
C2       0.25219    -0.10514   0.74834   1.00
C3       0.22158    0.08285    0.77448   1.00
C3       0.24709    -0.08449   0.78345   1.00
C3       0.27441    0.08486    0.72838   1.00
C3a      0.25667    -0.08328   0.71374   1.00
H1       0.20148    0.02575    0.79140   1.00
H1       0.24268    -0.02875   0.81212   1.00
H1       0.20053    0.09760    0.79283   1.00
H1       0.24376    -0.10056   0.81045   1.00
H1       0.29494    0.10118    0.71078   1.00
C5       0.26198    -0.10380   0.67526   1.00
H1       0.25908    -0.02622   0.68747   1.00
H1       0.29703    0.02941    0.70944   1.00
H2       0.26271    -0.13599   0.67923   1.00
H2       0.23652    -0.09705   0.65634   1.00
N1       0.29819    -0.09125   0.65645   1.00
C6       0.33453    -0.09644   0.67047   1.00
C6       0.30137    -0.07288   0.62186   1.00
C6       0.36128    -0.08102   0.64466   1.00
C6       0.34018    -0.06604   0.61374   1.00
H3       0.34130    -0.11049   0.69796   1.00
H3       0.27698    -0.06484   0.60346   1.00
H3       0.39265    -0.08076   0.64799   1.00
H3       0.35183    -0.05180   0.58812   1.00
C4       0.25013    0.24924    0.52083   1.00
C4       0.24987    0.25076    0.47917   1.00
C3       0.27370    0.22235    0.54154   1.00
C3       0.28427    0.24631    0.45679   1.00
C3       0.22746    0.27527    0.54357   1.00
C3       0.21469    0.25588    0.45813   1.00
C2       0.25192    0.24762    0.60513   1.00
C2       0.24834    0.25219    0.39486   1.00
C3       0.27448    0.22158    0.58285   1.00
C3       0.28345    0.24709    0.41551   1.00
C3       0.22838    0.27441    0.58486   1.00
C3a      0.21374    0.25667    0.41672   1.00
H1       0.29140    0.20148    0.52575   1.00
H1       0.31212    0.24268    0.47125   1.00
H1       0.29283    0.20053    0.59760   1.00
H1       0.31045    0.24376    0.39944   1.00
H1       0.21078    0.29494    0.60118   1.00
C5       0.17526    0.26198    0.39620   1.00
H1       0.18747    0.25908    0.47378   1.00
H1       0.20944    0.29703    0.52941   1.00
H2       0.17923    0.26271    0.36401   1.00
H2       0.15634    0.23652    0.40295   1.00
N1       0.15645    0.29819    0.40875   1.00
C6       0.17047    0.33453    0.40356   1.00
C6       0.12186    0.30137    0.42712   1.00
C6       0.14466    0.36128    0.41898   1.00
C6       0.11374    0.34018    0.43396   1.00
H3       0.19796    0.34130    0.38951   1.00
H3       0.10346    0.27698    0.43516   1.00
H3       0.14799    0.39265    0.41924   1.00
H3       0.08812    0.35183    0.44820   1.00
C4       0.25013    0.75076    0.47917   1.00
C4       0.24987    0.74924    0.52083   1.00
C3       0.27370    0.77765    0.45846   1.00
C3       0.28427    0.75369    0.54321   1.00
C3       0.22746    0.72473    0.45643   1.00
C3       0.21469    0.74412    0.54187   1.00
C2       0.25192    0.75238    0.39487   1.00
C2       0.24834    0.74781    0.60514   1.00
C3       0.27448    0.77842    0.41715   1.00
C3       0.28345    0.75291    0.58449   1.00
C3       0.22838    0.72559    0.41514   1.00
C3a      0.21374    0.74333    0.58328   1.00
H1       0.29140    0.79852    0.47425   1.00
H1       0.31212    0.75732    0.52875   1.00
H1       0.29283    0.79947    0.40240   1.00
H1       0.31045    0.75624    0.60056   1.00
H1       0.21078    0.70506    0.39882   1.00
C5       0.17526    0.73802    0.60380   1.00
H1       0.18747    0.74092    0.52622   1.00
H1       0.20944    0.70297    0.47059   1.00
H2       0.17923    0.73729    0.63599   1.00
H2       0.15634    0.76348    0.59705   1.00
N1       0.15645    0.70181    0.59125   1.00
C6       0.17047    0.66547    0.59644   1.00
C6       0.12186    0.69863    0.57288   1.00
C6       0.14466    0.63872    0.58102   1.00
C6       0.11374    0.65982    0.56604   1.00
H3       0.19796    0.65870    0.61049   1.00
H3       0.10346    0.72302    0.56484   1.00
H3       0.14799    0.60735    0.58076   1.00
H3       0.08812    0.64817    0.55180   1.00
C4       0.25076    0.97917    0.25013   1.00
C4       0.24924    1.02083    0.24987   1.00
C3       0.27765    0.95846    0.27370   1.00
C3       0.25369    1.04321    0.28427   1.00
C3       0.22473    0.95643    0.22746   1.00
C3       0.24412    1.04187    0.21469   1.00
C2       0.25238    0.89487    0.25192   1.00
C2       0.24781    1.10514    0.24834   1.00
C3       0.27842    0.91715    0.27448   1.00
C3       0.25291    1.08449    0.28345   1.00
C3       0.22559    0.91514    0.22838   1.00
C3a      0.24333    1.08328    0.21374   1.00
H1       0.29852    0.97425    0.29140   1.00
H1       0.25732    1.02875    0.31212   1.00
H1       0.29947    0.90240    0.29283   1.00
H1       0.25624    1.10056    0.31045   1.00
H1       0.20506    0.89882    0.21078   1.00
C5       0.23802    1.10380    0.17526   1.00
H1       0.24092    1.02622    0.18747   1.00
H1       0.20297    0.97059    0.20944   1.00
H2       0.23729    1.13599    0.17923   1.00
H2       0.26348    1.09705    0.15634   1.00
N1       0.20181    1.09125    0.15645   1.00
C6       0.16547    1.09644    0.17047   1.00
C6       0.19863    1.07288    0.12186   1.00
C6       0.13872    1.08102    0.14466   1.00
C6       0.15982    1.06604    0.11374   1.00
H3       0.15870    1.11049    0.19796   1.00
H3       0.22302    1.06484    0.10346   1.00
H3       0.10735    1.08076    0.14799   1.00
H3       0.14817    1.05180    0.08812   1.00
C4       0.02083    0.75013    0.24924   1.00
C4       -0.02083   0.74987    0.25076   1.00
C3       0.04154    0.77370    0.22235   1.00
C3       -0.04321   0.78427    0.24631   1.00
C3       0.04357    0.72746    0.27527   1.00
C3       -0.04187   0.71469    0.25588   1.00
C2       0.10513    0.75192    0.24762   1.00
C2       -0.10514   0.74834    0.25219   1.00
C3       0.08285    0.77448    0.22158   1.00
C3       -0.08449   0.78345    0.24709   1.00
C3       0.08486    0.72838    0.27441   1.00
C3a      -0.08328   0.71374    0.25667   1.00
H1       0.02575    0.79140    0.20148   1.00
H1       -0.02875   0.81212    0.24268   1.00
H1       0.09760    0.79283    0.20053   1.00
H1       -0.10056   0.81045    0.24376   1.00
H1       0.10118    0.71078    0.29494   1.00
C5       -0.10380   0.67526    0.26198   1.00
H1       -0.02622   0.68747    0.25908   1.00
H1       0.02941    0.70944    0.29703   1.00
H2       -0.13599   0.67923    0.26271   1.00
H2       -0.09705   0.65634    0.23652   1.00
N1       -0.09125   0.65645    0.29819   1.00
C6       -0.09644   0.67047    0.33453   1.00
C6       -0.07288   0.62186    0.30137   1.00
C6       -0.08102   0.64466    0.36128   1.00
C6       -0.06604   0.61374    0.34018   1.00
H3       -0.11049   0.69796    0.34130   1.00
H3       -0.06484   0.60346    0.27698   1.00
H3       -0.08076   0.64799    0.39265   1.00
H3       -0.05180   0.58812    0.35183   1.00
C4       0.47917    0.75013    0.25076   1.00
C4       0.52083    0.74987    0.24924   1.00
C3       0.45846    0.77370    0.27765   1.00
C3       0.54321    0.78427    0.25369   1.00
C3       0.45643    0.72746    0.22473   1.00
C3       0.54187    0.71469    0.24412   1.00
C2       0.39487    0.75192    0.25238   1.00
C2       0.60514    0.74834    0.24781   1.00
C3       0.41715    0.77448    0.27842   1.00
C3       0.58449    0.78345    0.25291   1.00
C3       0.41514    0.72838    0.22559   1.00
C3a      0.58328    0.71374    0.24333   1.00
H1       0.47425    0.79140    0.29852   1.00
H1       0.52875    0.81212    0.25732   1.00
H1       0.40240    0.79283    0.29947   1.00
H1       0.60056    0.81045    0.25624   1.00
H1       0.39882    0.71078    0.20506   1.00
C5       0.60380    0.67526    0.23802   1.00
H1       0.52622    0.68747    0.24092   1.00
H1       0.47059    0.70944    0.20297   1.00
H2       0.63599    0.67923    0.23729   1.00
H2       0.59705    0.65634    0.26348   1.00
N1       0.59125    0.65645    0.20181   1.00
C6       0.59644    0.67047    0.16547   1.00
C6       0.57288    0.62186    0.19863   1.00
C6       0.58102    0.64466    0.13872   1.00
C6       0.56604    0.61374    0.15982   1.00
H3       0.61049    0.69796    0.15870   1.00
H3       0.56484    0.60346    0.22302   1.00
H3       0.58076    0.64799    0.10735   1.00
H3       0.55180    0.58812    0.14817   1.00
C4       0.24924    0.52083    0.25013   1.00
C4       0.25076    0.47917    0.24987   1.00
C3       0.22235    0.54154    0.27370   1.00
C3       0.24631    0.45679    0.28427   1.00
C3       0.27527    0.54357    0.22746   1.00
C3       0.25588    0.45813    0.21469   1.00
C2       0.24762    0.60513    0.25192   1.00
C2       0.25219    0.39486    0.24834   1.00
C3       0.22158    0.58285    0.27448   1.00
C3       0.24709    0.41551    0.28345   1.00
C3       0.27441    0.58486    0.22838   1.00
C3a      0.25667    0.41672    0.21374   1.00
H1       0.20148    0.52575    0.29140   1.00
H1       0.24268    0.47125    0.31212   1.00
H1       0.20053    0.59760    0.29283   1.00
H1       0.24376    0.39944    0.31045   1.00
H1       0.29494    0.60118    0.21078   1.00
C5       0.26198    0.39620    0.17526   1.00
H1       0.25908    0.47378    0.18747   1.00
H1       0.29703    0.52941    0.20944   1.00
H2       0.26271    0.36401    0.17923   1.00
H2       0.23652    0.40295    0.15634   1.00
N1       0.29819    0.40875    0.15645   1.00
C6       0.33453    0.40356    0.17047   1.00
C6       0.30137    0.42712    0.12186   1.00
C6       0.36128    0.41898    0.14466   1.00
C6       0.34018    0.43396    0.11374   1.00
H3       0.34130    0.38951    0.19796   1.00
H3       0.27698    0.43516    0.10346   1.00
H3       0.39265    0.41924    0.14799   1.00
H3       0.35183    0.44820    0.08812   1.00
C4       0.25013    0.74924    0.02083   1.00
C4       0.24987    0.75076    -0.02083   1.00
C3       0.27370    0.72235    0.04154   1.00
C3       0.28427    0.74631    -0.04321   1.00
C3       0.22746    0.77527    0.04357   1.00
C3       0.21469    0.75588    -0.04187   1.00
C2       0.25192    0.74762    0.10513   1.00
C2       0.24834    0.75219    -0.10514   1.00
C3       0.27448    0.72158    0.08285   1.00
C3       0.28345    0.74709    -0.08449   1.00
C3       0.22838    0.77441    0.08486   1.00
C3a      0.21374    0.75667    -0.08328   1.00
H1       0.29140    0.70148    0.02575   1.00
H1       0.31212    0.74268    -0.02875   1.00
H1       0.29283    0.70053    0.09760   1.00
H1       0.31045    0.74376    -0.10056   1.00
H1       0.21078    0.79494    0.10118   1.00
C5       0.17526    0.76198    -0.10380   1.00
H1       0.18747    0.75908    -0.02622   1.00
H1       0.20944    0.79703    0.02941   1.00
H2       0.17923    0.76271    -0.13599   1.00
H2       0.15634    0.73652    -0.09705   1.00
N1       0.15645    0.79819    -0.09125   1.00
C6       0.17047    0.83453    -0.09644   1.00
C6       0.12186    0.80137    -0.07288   1.00
C6       0.14466    0.86128    -0.08102   1.00
C6       0.11374    0.84018    -0.06604   1.00
H3       0.19796    0.84130    -0.11049   1.00
H3       0.10346    0.77698    -0.06484   1.00
H3       0.14799    0.89265    -0.08076   1.00
H3       0.08812    0.85183    -0.05180   1.00
C4       0.75013    0.25076    0.47917   1.00
C4       0.74987    0.24924    0.52083   1.00
C3       0.77370    0.27765    0.45846   1.00
C3       0.78427    0.25369    0.54321   1.00
C3       0.72746    0.22473    0.45643   1.00
C3       0.71469    0.24412    0.54187   1.00
C2       0.75192    0.25238    0.39487   1.00
C2       0.74834    0.24781    0.60514   1.00
C3       0.77448    0.27842    0.41715   1.00
C3       0.78345    0.25291    0.58449   1.00
C3       0.72838    0.22559    0.41514   1.00
C3a      0.71374    0.24333    0.58328   1.00
H1       0.79140    0.29852    0.47425   1.00
H1       0.81212    0.25732    0.52875   1.00
H1       0.79283    0.29947    0.40240   1.00
H1       0.81045    0.25624    0.60056   1.00
H1       0.71078    0.20506    0.39882   1.00
C5       0.67526    0.23802    0.60380   1.00
H1       0.68747    0.24092    0.52622   1.00
H1       0.70944    0.20297    0.47059   1.00
H2       0.67923    0.23729    0.63599   1.00
H2       0.65634    0.26348    0.59705   1.00
N1       0.65645    0.20181    0.59125   1.00
C6       0.67047    0.16547    0.59644   1.00
C6       0.62186    0.19863    0.57288   1.00
C6       0.64466    0.13872    0.58102   1.00
C6       0.61374    0.15982    0.56604   1.00
H3       0.69796    0.15870    0.61049   1.00
H3       0.60346    0.22302    0.56484   1.00
H3       0.64799    0.10735    0.58076   1.00
H3       0.58812    0.14817    0.55180   1.00
C4       0.75076    0.47917    0.25013   1.00
C4       0.74924    0.52083    0.24987   1.00
C3       0.77765    0.45846    0.27370   1.00
C3       0.75369    0.54321    0.28427   1.00
C3       0.72473    0.45643    0.22746   1.00
C3       0.74412    0.54187    0.21469   1.00
C2       0.75238    0.39487    0.25192   1.00
C2       0.74781    0.60514    0.24834   1.00
C3       0.77842    0.41715    0.27448   1.00
C3       0.75291    0.58449    0.28345   1.00
C3       0.72559    0.41514    0.22838   1.00
C3a      0.74333    0.58328    0.21374   1.00
H1       0.79852    0.47425    0.29140   1.00
H1       0.75732    0.52875    0.31212   1.00
H1       0.79947    0.40240    0.29283   1.00
H1       0.75624    0.60056    0.31045   1.00
H1       0.70506    0.39882    0.21078   1.00
C5       0.73802    0.60380    0.17526   1.00
H1       0.74092    0.52622    0.18747   1.00
H1       0.70297    0.47059    0.20944   1.00
H2       0.73729    0.63599    0.17923   1.00
H2       0.76348    0.59705    0.15634   1.00
N1       0.70181    0.59125    0.15645   1.00
C6       0.66547    0.59644    0.17047   1.00
C6       0.69863    0.57288    0.12186   1.00
C6       0.63872    0.58102    0.14466   1.00
C6       0.65982    0.56604    0.11374   1.00
H3       0.65870    0.61049    0.19796   1.00
H3       0.72302    0.56484    0.10346   1.00
H3       0.60735    0.58076    0.14799   1.00
H3       0.64817    0.55180    0.08812   1.00
C4       0.52083    0.25013    0.24924   1.00
C4       0.47917    0.24987    0.25076   1.00
C3       0.54154    0.27370    0.22235   1.00
C3       0.45679    0.28427    0.24631   1.00
C3       0.54357    0.22746    0.27527   1.00
C3       0.45813    0.21469    0.25588   1.00
C2       0.60513    0.25192    0.24762   1.00
C2       0.39486    0.24834    0.25219   1.00
C3       0.58285    0.27448    0.22158   1.00
C3       0.41551    0.28345    0.24709   1.00
C3       0.58486    0.22838    0.27441   1.00
C3a      0.41672    0.21374    0.25667   1.00
H1       0.52575    0.29140    0.20148   1.00
H1       0.47125    0.31212    0.24268   1.00
H1       0.59760    0.29283    0.20053   1.00
H1       0.39944    0.31045    0.24376   1.00
H1       0.60118    0.21078    0.29494   1.00
C5       0.39620    0.17526    0.26198   1.00
H1       0.47378    0.18747    0.25908   1.00
H1       0.52941    0.20944    0.29703   1.00
H2       0.36401    0.17923    0.26271   1.00
H2       0.40295    0.15634    0.23652   1.00
N1       0.40875    0.15645    0.29819   1.00
C6       0.40356    0.17047    0.33453   1.00
C6       0.42712    0.12186    0.30137   1.00
C6       0.41898    0.14466    0.36128   1.00
C6       0.43396    0.11374    0.34018   1.00
H3       0.38951    0.19796    0.34130   1.00
H3       0.43516    0.10346    0.27698   1.00
H3       0.41924    0.14799    0.39265   1.00
H3       0.44820    0.08812    0.35183   1.00
C4       0.97917    0.25013    0.25076   1.00
C4       1.02083    0.24987    0.24924   1.00
C3       0.95846    0.27370    0.27765   1.00
C3       1.04321    0.28427    0.25369   1.00
C3       0.95643    0.22746    0.22473   1.00
C3       1.04187    0.21469    0.24412   1.00
C2       0.89487    0.25192    0.25238   1.00
C2       1.10514    0.24834    0.24781   1.00
C3       0.91715    0.27448    0.27842   1.00
C3       1.08449    0.28345    0.25291   1.00
C3       0.91514    0.22838    0.22559   1.00
C3a      1.08328    0.21374    0.24333   1.00
H1       0.97425    0.29140    0.29852   1.00
H1       1.02875    0.31212    0.25732   1.00
H1       0.90240    0.29283    0.29947   1.00
H1       1.10056    0.31045    0.25624   1.00
H1       0.89882    0.21078    0.20506   1.00
C5       1.10380    0.17526    0.23802   1.00
H1       1.02622    0.18747    0.24092   1.00
H1       0.97059    0.20944    0.20297   1.00
H2       1.13599    0.17923    0.23729   1.00
H2       1.09705    0.15634    0.26348   1.00
N1       1.09125    0.15645    0.20181   1.00
C6       1.09644    0.17047    0.16547   1.00
C6       1.07288    0.12186    0.19863   1.00
C6       1.08102    0.14466    0.13872   1.00
C6       1.06604    0.11374    0.15982   1.00
H3       1.11049    0.19796    0.15870   1.00
H3       1.06484    0.10346    0.22302   1.00
H3       1.08076    0.14799    0.10735   1.00
H3       1.05180    0.08812    0.14817   1.00
C4       0.74924    0.02083    0.25013   1.00
C4       0.75076    -0.02083   0.24987   1.00
C3       0.72235    0.04154    0.27370   1.00
C3       0.74631    -0.04321   0.28427   1.00
C3       0.77527    0.04357    0.22746   1.00
C3       0.75588    -0.04187   0.21469   1.00
C2       0.74762    0.10513    0.25192   1.00
C2       0.75219    -0.10514   0.24834   1.00
C3       0.72158    0.08285    0.27448   1.00
C3       0.74709    -0.08449   0.28345   1.00
C3       0.77441    0.08486    0.22838   1.00
C3a      0.75667    -0.08328   0.21374   1.00
H1       0.70148    0.02575    0.29140   1.00
H1       0.74268    -0.02875   0.31212   1.00
H1       0.70053    0.09760    0.29283   1.00
H1       0.74376    -0.10056   0.31045   1.00
H1       0.79494    0.10118    0.21078   1.00
C5       0.76198    -0.10380   0.17526   1.00
H1       0.75908    -0.02622   0.18747   1.00
H1       0.79703    0.02941    0.20944   1.00
H2       0.76271    -0.13599   0.17923   1.00
H2       0.73652    -0.09705   0.15634   1.00
N1       0.79819    -0.09125   0.15645   1.00
C6       0.83453    -0.09644   0.17047   1.00
C6       0.80137    -0.07288   0.12186   1.00
C6       0.86128    -0.08102   0.14466   1.00
C6       0.84018    -0.06604   0.11374   1.00
H3       0.84130    -0.11049   0.19796   1.00
H3       0.77698    -0.06484   0.10346   1.00
H3       0.89265    -0.08076   0.14799   1.00
H3       0.85183    -0.05180   0.08812   1.00
C4       0.75013    0.24924    0.02083   1.00
C4       0.74987    0.25076    -0.02083   1.00
C3       0.77370    0.22235    0.04154   1.00
C3       0.78427    0.24631    -0.04321   1.00
C3       0.72746    0.27527    0.04357   1.00
C3       0.71469    0.25588    -0.04187   1.00
C2       0.75192    0.24762    0.10513   1.00
C2       0.74834    0.25219    -0.10514   1.00
C3       0.77448    0.22158    0.08285   1.00
C3       0.78345    0.24709    -0.08449   1.00
C3       0.72838    0.27441    0.08486   1.00
C3a      0.71374    0.25667    -0.08328   1.00
H1       0.79140    0.20148    0.02575   1.00
H1       0.81212    0.24268    -0.02875   1.00
H1       0.79283    0.20053    0.09760   1.00
H1       0.81045    0.24376    -0.10056   1.00
H1       0.71078    0.29494    0.10118   1.00
C5       0.67526    0.26198    -0.10380   1.00
H1       0.68747    0.25908    -0.02622   1.00
H1       0.70944    0.29703    0.02941   1.00
H2       0.67923    0.26271    -0.13599   1.00
H2       0.65634    0.23652    -0.09705   1.00
N1       0.65645    0.29819    -0.09125   1.00
C6       0.67047    0.33453    -0.09644   1.00
C6       0.62186    0.30137    -0.07288   1.00
C6       0.64466    0.36128    -0.08102   1.00
C6       0.61374    0.34018    -0.06604   1.00
H3       0.69796    0.34130    -0.11049   1.00
H3       0.60346    0.27698    -0.06484   1.00
H3       0.64799    0.39265    -0.08076   1.00
H3       0.58812    0.35183    -0.05180   1.00
