data_IRMOF10_SG202_Ligand11_label_q.

_audit_creation_method             'generated by an auxiliary program of Tobunporous'

_symmetry_space_group_name_H-M     'P 1'
_symmetry_Int_Tables_number        1
_symmetry_cell_setting             triclinic

_cell_length_a                    34.2800
_cell_length_b                    34.2800
_cell_length_c                    34.2800
_cell_angle_alpha                 90.0000
_cell_angle_beta                  90.0000
_cell_angle_gamma                 90.0000

loop_
_atom_site_label
_atom_site_fract_x
_atom_site_fract_y
_atom_site_fract_z
_atom_site_occupancy
O1       0.75000    0.75000    0.75000   1.00
Zn1      0.71720    0.78280    0.78280   1.00
Zn1      0.78280    0.71720    0.78280   1.00
Zn1      0.78280    0.78280    0.71720   1.00
Zn1      0.71720    0.71720    0.71720   1.00
O2       0.72650    0.77350    0.83820   1.00
O2       0.72650    0.83820    0.77350   1.00
O2       0.66180    0.77350    0.77350   1.00
O2       0.77350    0.72650    0.83820   1.00
O2       0.83820    0.72650    0.77350   1.00
O2       0.77350    0.66180    0.77350   1.00
O2       0.77350    0.83820    0.72650   1.00
O2       0.83820    0.77350    0.72650   1.00
O2       0.77350    0.77350    0.66180   1.00
O2       0.66180    0.72650    0.72650   1.00
O2       0.72650    0.66180    0.72650   1.00
O2       0.72650    0.72650    0.66180   1.00
C1       0.75000    0.75000    0.85520   1.00
C1       0.75000    0.85520    0.75000   1.00
C1       0.64480    0.75000    0.75000   1.00
C1       0.85520    0.75000    0.75000   1.00
C1       0.75000    0.64480    0.75000   1.00
C1       0.75000    0.75000    0.64480   1.00
O1       0.25000    0.25000    0.75000   1.00
Zn1      0.21720    0.28280    0.78280   1.00
Zn1      0.28280    0.21720    0.78280   1.00
Zn1      0.28280    0.28280    0.71720   1.00
Zn1      0.21720    0.21720    0.71720   1.00
O2       0.22650    0.27350    0.83820   1.00
O2       0.22650    0.33820    0.77350   1.00
O2       0.16180    0.27350    0.77350   1.00
O2       0.27350    0.22650    0.83820   1.00
O2       0.33820    0.22650    0.77350   1.00
O2       0.27350    0.16180    0.77350   1.00
O2       0.27350    0.33820    0.72650   1.00
O2       0.33820    0.27350    0.72650   1.00
O2       0.27350    0.27350    0.66180   1.00
O2       0.16180    0.22650    0.72650   1.00
O2       0.22650    0.16180    0.72650   1.00
O2       0.22650    0.22650    0.66180   1.00
C1       0.25000    0.25000    0.85520   1.00
C1       0.25000    0.35520    0.75000   1.00
C1       0.14480    0.25000    0.75000   1.00
C1       0.35520    0.25000    0.75000   1.00
C1       0.25000    0.14480    0.75000   1.00
C1       0.25000    0.25000    0.64480   1.00
O1       0.25000    0.75000    0.25000   1.00
Zn1      0.21720    0.78280    0.28280   1.00
Zn1      0.28280    0.71720    0.28280   1.00
Zn1      0.28280    0.78280    0.21720   1.00
Zn1      0.21720    0.71720    0.21720   1.00
O2       0.22650    0.77350    0.33820   1.00
O2       0.22650    0.83820    0.27350   1.00
O2       0.16180    0.77350    0.27350   1.00
O2       0.27350    0.72650    0.33820   1.00
O2       0.33820    0.72650    0.27350   1.00
O2       0.27350    0.66180    0.27350   1.00
O2       0.27350    0.83820    0.22650   1.00
O2       0.33820    0.77350    0.22650   1.00
O2       0.27350    0.77350    0.16180   1.00
O2       0.16180    0.72650    0.22650   1.00
O2       0.22650    0.66180    0.22650   1.00
O2       0.22650    0.72650    0.16180   1.00
C1       0.25000    0.75000    0.35520   1.00
C1       0.25000    0.85520    0.25000   1.00
C1       0.14480    0.75000    0.25000   1.00
C1       0.35520    0.75000    0.25000   1.00
C1       0.25000    0.64480    0.25000   1.00
C1       0.25000    0.75000    0.14480   1.00
O1       0.75000    0.25000    0.25000   1.00
Zn1      0.71720    0.28280    0.28280   1.00
Zn1      0.78280    0.21720    0.28280   1.00
Zn1      0.78280    0.28280    0.21720   1.00
Zn1      0.71720    0.21720    0.21720   1.00
O2       0.72650    0.27350    0.33820   1.00
O2       0.72650    0.33820    0.27350   1.00
O2       0.66180    0.27350    0.27350   1.00
O2       0.77350    0.22650    0.33820   1.00
O2       0.83820    0.22650    0.27350   1.00
O2       0.77350    0.16180    0.27350   1.00
O2       0.77350    0.33820    0.22650   1.00
O2       0.83820    0.27350    0.22650   1.00
O2       0.77350    0.27350    0.16180   1.00
O2       0.66180    0.22650    0.22650   1.00
O2       0.72650    0.16180    0.22650   1.00
O2       0.72650    0.22650    0.16180   1.00
C1       0.75000    0.25000    0.35520   1.00
C1       0.75000    0.35520    0.25000   1.00
C1       0.64480    0.25000    0.25000   1.00
C1       0.85520    0.25000    0.25000   1.00
C1       0.75000    0.14480    0.25000   1.00
C1       0.75000    0.25000    0.14480   1.00
O1       0.25000    0.25000    0.25000   1.00
Zn1      0.28280    0.21720    0.21720   1.00
Zn1      0.21720    0.28280    0.21720   1.00
Zn1      0.21720    0.21720    0.28280   1.00
Zn1      0.28280    0.28280    0.28280   1.00
O2       0.27350    0.22650    0.16180   1.00
O2       0.27350    0.16180    0.22650   1.00
O2       0.33820    0.22650    0.22650   1.00
O2       0.22650    0.27350    0.16180   1.00
O2       0.16180    0.27350    0.22650   1.00
O2       0.22650    0.33820    0.22650   1.00
O2       0.22650    0.16180    0.27350   1.00
O2       0.16180    0.22650    0.27350   1.00
O2       0.22650    0.22650    0.33820   1.00
O2       0.33820    0.27350    0.27350   1.00
O2       0.27350    0.33820    0.27350   1.00
O2       0.27350    0.27350    0.33820   1.00
C1       0.25000    0.25000    0.14480   1.00
C1       0.25000    0.14480    0.25000   1.00
C1       0.35520    0.25000    0.25000   1.00
C1       0.14480    0.25000    0.25000   1.00
C1       0.25000    0.35520    0.25000   1.00
C1       0.25000    0.25000    0.35520   1.00
O1       0.75000    0.75000    0.25000   1.00
Zn1      0.78280    0.71720    0.21720   1.00
Zn1      0.71720    0.78280    0.21720   1.00
Zn1      0.71720    0.71720    0.28280   1.00
Zn1      0.78280    0.78280    0.28280   1.00
O2       0.77350    0.72650    0.16180   1.00
O2       0.77350    0.66180    0.22650   1.00
O2       0.83820    0.72650    0.22650   1.00
O2       0.72650    0.77350    0.16180   1.00
O2       0.66180    0.77350    0.22650   1.00
O2       0.72650    0.83820    0.22650   1.00
O2       0.72650    0.66180    0.27350   1.00
O2       0.66180    0.72650    0.27350   1.00
O2       0.72650    0.72650    0.33820   1.00
O2       0.83820    0.77350    0.27350   1.00
O2       0.77350    0.83820    0.27350   1.00
O2       0.77350    0.77350    0.33820   1.00
C1       0.75000    0.75000    0.14480   1.00
C1       0.75000    0.64480    0.25000   1.00
C1       0.85520    0.75000    0.25000   1.00
C1       0.64480    0.75000    0.25000   1.00
C1       0.75000    0.85520    0.25000   1.00
C1       0.75000    0.75000    0.35520   1.00
O1       0.75000    0.25000    0.75000   1.00
Zn1      0.78280    0.21720    0.71720   1.00
Zn1      0.71720    0.28280    0.71720   1.00
Zn1      0.71720    0.21720    0.78280   1.00
Zn1      0.78280    0.28280    0.78280   1.00
O2       0.77350    0.22650    0.66180   1.00
O2       0.77350    0.16180    0.72650   1.00
O2       0.83820    0.22650    0.72650   1.00
O2       0.72650    0.27350    0.66180   1.00
O2       0.66180    0.27350    0.72650   1.00
O2       0.72650    0.33820    0.72650   1.00
O2       0.72650    0.16180    0.77350   1.00
O2       0.66180    0.22650    0.77350   1.00
O2       0.72650    0.22650    0.83820   1.00
O2       0.83820    0.27350    0.77350   1.00
O2       0.77350    0.33820    0.77350   1.00
O2       0.77350    0.27350    0.83820   1.00
C1       0.75000    0.25000    0.64480   1.00
C1       0.75000    0.14480    0.75000   1.00
C1       0.85520    0.25000    0.75000   1.00
C1       0.64480    0.25000    0.75000   1.00
C1       0.75000    0.35520    0.75000   1.00
C1       0.75000    0.25000    0.85520   1.00
O1       0.25000    0.75000    0.75000   1.00
Zn1      0.28280    0.71720    0.71720   1.00
Zn1      0.21720    0.78280    0.71720   1.00
Zn1      0.21720    0.71720    0.78280   1.00
Zn1      0.28280    0.78280    0.78280   1.00
O2       0.27350    0.72650    0.66180   1.00
O2       0.27350    0.66180    0.72650   1.00
O2       0.33820    0.72650    0.72650   1.00
O2       0.22650    0.77350    0.66180   1.00
O2       0.16180    0.77350    0.72650   1.00
O2       0.22650    0.83820    0.72650   1.00
O2       0.22650    0.66180    0.77350   1.00
O2       0.16180    0.72650    0.77350   1.00
O2       0.22650    0.72650    0.83820   1.00
O2       0.33820    0.77350    0.77350   1.00
O2       0.27350    0.83820    0.77350   1.00
O2       0.27350    0.77350    0.83820   1.00
C1       0.25000    0.75000    0.64480   1.00
C1       0.25000    0.64480    0.75000   1.00
C1       0.35520    0.75000    0.75000   1.00
C1       0.14480    0.75000    0.75000   1.00
C1       0.25000    0.85520    0.75000   1.00
C1       0.25000    0.75000    0.85520   1.00
C4       0.74982    0.74993    0.97915   1.00
C4       0.75018    0.75007    1.02085   1.00
C3a      0.73264    0.71877    0.95746   1.00
C3       0.71688    0.76125    1.04232   1.00
C3       0.76644    0.78087    0.95768   1.00
C3a      0.78403    0.73912    1.04254   1.00
C2       0.74997    0.75007    0.89488   1.00
C2       0.74997    0.75008    1.10512   1.00
C3       0.73306    0.71930    0.91595   1.00
C3       0.71679    0.76112    1.08363   1.00
C3       0.76659    0.78084    0.91637   1.00
C3       0.78336    0.73922    1.08405   1.00
C5       0.71415    0.68416    0.97772   1.00
H1       0.69063    0.76976    1.02691   1.00
H1       0.72015    0.69546    0.89979   1.00
H1       0.69057    0.76968    1.09901   1.00
H1       0.77984    0.80503    0.90099   1.00
H1       0.80910    0.73068    1.10021   1.00
C5       0.82120    0.72655    1.02228   1.00
H1       0.77975    0.80505    0.97309   1.00
H2       0.83940    0.70901    1.04256   1.00
H2       0.81431    0.70708    0.99731   1.00
H2       0.71290    0.65892    0.95744   1.00
H2       0.73250    0.67469    1.00269   1.00
N1       0.84336    0.76039    1.00857   1.00
C6       0.86048    0.78752    1.03073   1.00
C6       0.85128    0.76945    0.97154   1.00
C6       0.87913    0.81454    1.00759   1.00
C6       0.87329    0.80305    0.96995   1.00
H3       0.85927    0.78797    1.06197   1.00
H3       0.84141    0.75285    0.94700   1.00
H3       0.89522    0.83979    1.01713   1.00
H3       0.88387    0.81757    0.94425   1.00
N1       0.67483    0.69366    0.99143   1.00
C6       0.66286    0.69484    1.02846   1.00
C6       0.64379    0.70171    0.96927   1.00
C6       0.62382    0.70426    1.03005   1.00
C6       0.61169    0.70864    0.99241   1.00
H3       0.68142    0.68949    1.05300   1.00
H3       0.64436    0.70287    0.93803   1.00
H3       0.60616    0.70760    1.05575   1.00
H3       0.58268    0.71602    0.98287   1.00
C4       0.74993    0.97915    0.74982   1.00
C4       0.75007    1.02085    0.75018   1.00
C3a      0.71877    0.95746    0.73264   1.00
C3       0.76125    1.04232    0.71688   1.00
C3       0.78087    0.95768    0.76644   1.00
C3a      0.73912    1.04254    0.78403   1.00
C2       0.75007    0.89488    0.74997   1.00
C2       0.75008    1.10512    0.74997   1.00
C3       0.71930    0.91595    0.73306   1.00
C3       0.76112    1.08363    0.71679   1.00
C3       0.78084    0.91637    0.76659   1.00
C3       0.73922    1.08405    0.78336   1.00
C5       0.68416    0.97772    0.71415   1.00
H1       0.76976    1.02691    0.69063   1.00
H1       0.69546    0.89979    0.72015   1.00
H1       0.76968    1.09901    0.69057   1.00
H1       0.80503    0.90099    0.77984   1.00
H1       0.73068    1.10021    0.80910   1.00
C5       0.72655    1.02228    0.82120   1.00
H1       0.80505    0.97309    0.77975   1.00
H2       0.70901    1.04256    0.83940   1.00
H2       0.70708    0.99731    0.81431   1.00
H2       0.65892    0.95744    0.71290   1.00
H2       0.67469    1.00269    0.73250   1.00
N1       0.76039    1.00857    0.84336   1.00
C6       0.78752    1.03073    0.86048   1.00
C6       0.76945    0.97154    0.85128   1.00
C6       0.81454    1.00759    0.87913   1.00
C6       0.80305    0.96995    0.87329   1.00
H3       0.78797    1.06197    0.85927   1.00
H3       0.75285    0.94700    0.84141   1.00
H3       0.83979    1.01713    0.89522   1.00
H3       0.81757    0.94425    0.88387   1.00
N1       0.69366    0.99143    0.67483   1.00
C6       0.69484    1.02846    0.66286   1.00
C6       0.70171    0.96927    0.64379   1.00
C6       0.70426    1.03005    0.62382   1.00
C6       0.70864    0.99241    0.61169   1.00
H3       0.68949    1.05300    0.68142   1.00
H3       0.70287    0.93803    0.64436   1.00
H3       0.70760    1.05575    0.60616   1.00
H3       0.71602    0.98287    0.58268   1.00
C4       0.52085    0.74982    0.75007   1.00
C4       0.47915    0.75018    0.74993   1.00
C3a      0.54254    0.73264    0.78123   1.00
C3       0.45768    0.71688    0.73875   1.00
C3       0.54232    0.76644    0.71913   1.00
C3a      0.45746    0.78403    0.76088   1.00
C2       0.60512    0.74997    0.74993   1.00
C2       0.39488    0.74997    0.74992   1.00
C3       0.58405    0.73306    0.78070   1.00
C3       0.41637    0.71679    0.73888   1.00
C3       0.58363    0.76659    0.71916   1.00
C3       0.41595    0.78336    0.76078   1.00
C5       0.52228    0.71415    0.81584   1.00
H1       0.47309    0.69063    0.73024   1.00
H1       0.60021    0.72015    0.80454   1.00
H1       0.40099    0.69057    0.73032   1.00
H1       0.59901    0.77984    0.69497   1.00
H1       0.39979    0.80910    0.76932   1.00
C5       0.47772    0.82120    0.77345   1.00
H1       0.52691    0.77975    0.69495   1.00
H2       0.45744    0.83940    0.79099   1.00
H2       0.50269    0.81431    0.79292   1.00
H2       0.54256    0.71290    0.84108   1.00
H2       0.49731    0.73250    0.82531   1.00
N1       0.49143    0.84336    0.73961   1.00
C6       0.46927    0.86048    0.71248   1.00
C6       0.52846    0.85128    0.73055   1.00
C6       0.49241    0.87913    0.68546   1.00
C6       0.53005    0.87329    0.69695   1.00
H3       0.43803    0.85927    0.71203   1.00
H3       0.55300    0.84141    0.74715   1.00
H3       0.48287    0.89522    0.66021   1.00
H3       0.55575    0.88387    0.68243   1.00
N1       0.50857    0.67483    0.80634   1.00
C6       0.47154    0.66286    0.80516   1.00
C6       0.53073    0.64379    0.79829   1.00
C6       0.46995    0.62382    0.79574   1.00
C6       0.50759    0.61169    0.79136   1.00
H3       0.44700    0.68142    0.81051   1.00
H3       0.56197    0.64436    0.79713   1.00
H3       0.44425    0.60616    0.79240   1.00
H3       0.51713    0.58268    0.78398   1.00
C4       0.97915    0.74982    0.74993   1.00
C4       1.02085    0.75018    0.75007   1.00
C3a      0.95746    0.73264    0.71877   1.00
C3       1.04232    0.71688    0.76125   1.00
C3       0.95768    0.76644    0.78087   1.00
C3a      1.04254    0.78403    0.73912   1.00
C2       0.89488    0.74997    0.75007   1.00
C2       1.10512    0.74997    0.75008   1.00
C3       0.91595    0.73306    0.71930   1.00
C3       1.08363    0.71679    0.76112   1.00
C3       0.91637    0.76659    0.78084   1.00
C3       1.08405    0.78336    0.73922   1.00
C5       0.97772    0.71415    0.68416   1.00
H1       1.02691    0.69063    0.76976   1.00
H1       0.89979    0.72015    0.69546   1.00
H1       1.09901    0.69057    0.76968   1.00
H1       0.90099    0.77984    0.80503   1.00
H1       1.10021    0.80910    0.73068   1.00
C5       1.02228    0.82120    0.72655   1.00
H1       0.97309    0.77975    0.80505   1.00
H2       1.04256    0.83940    0.70901   1.00
H2       0.99731    0.81431    0.70708   1.00
H2       0.95744    0.71290    0.65892   1.00
H2       1.00269    0.73250    0.67469   1.00
N1       1.00857    0.84336    0.76039   1.00
C6       1.03073    0.86048    0.78752   1.00
C6       0.97154    0.85128    0.76945   1.00
C6       1.00759    0.87913    0.81454   1.00
C6       0.96995    0.87329    0.80305   1.00
H3       1.06197    0.85927    0.78797   1.00
H3       0.94700    0.84141    0.75285   1.00
H3       1.01713    0.89522    0.83979   1.00
H3       0.94425    0.88387    0.81757   1.00
N1       0.99143    0.67483    0.69366   1.00
C6       1.02846    0.66286    0.69484   1.00
C6       0.96927    0.64379    0.70171   1.00
C6       1.03005    0.62382    0.70426   1.00
C6       0.99241    0.61169    0.70864   1.00
H3       1.05300    0.68142    0.68949   1.00
H3       0.93803    0.64436    0.70287   1.00
H3       1.05575    0.60616    0.70760   1.00
H3       0.98287    0.58268    0.71602   1.00
C4       0.75007    0.52085    0.74982   1.00
C4       0.74993    0.47915    0.75018   1.00
C3a      0.78123    0.54254    0.73264   1.00
C3       0.73875    0.45768    0.71688   1.00
C3       0.71913    0.54232    0.76644   1.00
C3a      0.76088    0.45746    0.78403   1.00
C2       0.74993    0.60512    0.74997   1.00
C2       0.74992    0.39488    0.74997   1.00
C3       0.78070    0.58405    0.73306   1.00
C3       0.73888    0.41637    0.71679   1.00
C3       0.71916    0.58363    0.76659   1.00
C3       0.76078    0.41595    0.78336   1.00
C5       0.81584    0.52228    0.71415   1.00
H1       0.73024    0.47309    0.69063   1.00
H1       0.80454    0.60021    0.72015   1.00
H1       0.73032    0.40099    0.69057   1.00
H1       0.69497    0.59901    0.77984   1.00
H1       0.76932    0.39979    0.80910   1.00
C5       0.77345    0.47772    0.82120   1.00
H1       0.69495    0.52691    0.77975   1.00
H2       0.79099    0.45744    0.83940   1.00
H2       0.79292    0.50269    0.81431   1.00
H2       0.84108    0.54256    0.71290   1.00
H2       0.82531    0.49731    0.73250   1.00
N1       0.73961    0.49143    0.84336   1.00
C6       0.71248    0.46927    0.86048   1.00
C6       0.73055    0.52846    0.85128   1.00
C6       0.68546    0.49241    0.87913   1.00
C6       0.69695    0.53005    0.87329   1.00
H3       0.71203    0.43803    0.85927   1.00
H3       0.74715    0.55300    0.84141   1.00
H3       0.66021    0.48287    0.89522   1.00
H3       0.68243    0.55575    0.88387   1.00
N1       0.80634    0.50857    0.67483   1.00
C6       0.80516    0.47154    0.66286   1.00
C6       0.79829    0.53073    0.64379   1.00
C6       0.79574    0.46995    0.62382   1.00
C6       0.79136    0.50759    0.61169   1.00
H3       0.81051    0.44700    0.68142   1.00
H3       0.79713    0.56197    0.64436   1.00
H3       0.79240    0.44425    0.60616   1.00
H3       0.78398    0.51713    0.58268   1.00
C4       0.74982    0.75007    0.52085   1.00
C4       0.75018    0.74993    0.47915   1.00
C3a      0.73264    0.78123    0.54254   1.00
C3       0.71688    0.73875    0.45768   1.00
C3       0.76644    0.71913    0.54232   1.00
C3a      0.78403    0.76088    0.45746   1.00
C2       0.74997    0.74993    0.60512   1.00
C2       0.74997    0.74992    0.39488   1.00
C3       0.73306    0.78070    0.58405   1.00
C3       0.71679    0.73888    0.41637   1.00
C3       0.76659    0.71916    0.58363   1.00
C3       0.78336    0.76078    0.41595   1.00
C5       0.71415    0.81584    0.52228   1.00
H1       0.69063    0.73024    0.47309   1.00
H1       0.72015    0.80454    0.60021   1.00
H1       0.69057    0.73032    0.40099   1.00
H1       0.77984    0.69497    0.59901   1.00
H1       0.80910    0.76932    0.39979   1.00
C5       0.82120    0.77345    0.47772   1.00
H1       0.77975    0.69495    0.52691   1.00
H2       0.83940    0.79099    0.45744   1.00
H2       0.81431    0.79292    0.50269   1.00
H2       0.71290    0.84108    0.54256   1.00
H2       0.73250    0.82531    0.49731   1.00
N1       0.84336    0.73961    0.49143   1.00
C6       0.86048    0.71248    0.46927   1.00
C6       0.85128    0.73055    0.52846   1.00
C6       0.87913    0.68546    0.49241   1.00
C6       0.87329    0.69695    0.53005   1.00
H3       0.85927    0.71203    0.43803   1.00
H3       0.84141    0.74715    0.55300   1.00
H3       0.89522    0.66021    0.48287   1.00
H3       0.88387    0.68243    0.55575   1.00
N1       0.67483    0.80634    0.50857   1.00
C6       0.66286    0.80516    0.47154   1.00
C6       0.64379    0.79829    0.53073   1.00
C6       0.62382    0.79574    0.46995   1.00
C6       0.61169    0.79136    0.50759   1.00
H3       0.68142    0.81051    0.44700   1.00
H3       0.64436    0.79713    0.56197   1.00
H3       0.60616    0.79240    0.44425   1.00
H3       0.58268    0.78398    0.51713   1.00
C4       0.24982    0.24993    0.97915   1.00
C4       0.25018    0.25007    1.02085   1.00
C3a      0.23264    0.21877    0.95746   1.00
C3       0.21688    0.26125    1.04232   1.00
C3       0.26644    0.28087    0.95768   1.00
C3a      0.28403    0.23912    1.04254   1.00
C2       0.24997    0.25007    0.89488   1.00
C2       0.24997    0.25008    1.10512   1.00
C3       0.23306    0.21930    0.91595   1.00
C3       0.21679    0.26112    1.08363   1.00
C3       0.26659    0.28084    0.91637   1.00
C3       0.28336    0.23922    1.08405   1.00
C5       0.21415    0.18416    0.97772   1.00
H1       0.19063    0.26976    1.02691   1.00
H1       0.22015    0.19546    0.89979   1.00
H1       0.19057    0.26968    1.09901   1.00
H1       0.27984    0.30503    0.90099   1.00
H1       0.30910    0.23068    1.10021   1.00
C5       0.32120    0.22655    1.02228   1.00
H1       0.27975    0.30505    0.97309   1.00
H2       0.33940    0.20901    1.04256   1.00
H2       0.31431    0.20708    0.99731   1.00
H2       0.21290    0.15892    0.95744   1.00
H2       0.23250    0.17469    1.00269   1.00
N1       0.34336    0.26039    1.00857   1.00
C6       0.36048    0.28752    1.03073   1.00
C6       0.35128    0.26945    0.97154   1.00
C6       0.37913    0.31454    1.00759   1.00
C6       0.37329    0.30305    0.96995   1.00
H3       0.35927    0.28797    1.06197   1.00
H3       0.34141    0.25285    0.94700   1.00
H3       0.39522    0.33979    1.01713   1.00
H3       0.38387    0.31757    0.94425   1.00
N1       0.17483    0.19366    0.99143   1.00
C6       0.16286    0.19484    1.02846   1.00
C6       0.14379    0.20171    0.96927   1.00
C6       0.12382    0.20426    1.03005   1.00
C6       0.11169    0.20864    0.99241   1.00
H3       0.18142    0.18949    1.05300   1.00
H3       0.14436    0.20287    0.93803   1.00
H3       0.10616    0.20760    1.05575   1.00
H3       0.08268    0.21602    0.98287   1.00
C4       0.24993    0.47915    0.74982   1.00
C4       0.25007    0.52085    0.75018   1.00
C3a      0.21877    0.45746    0.73264   1.00
C3       0.26125    0.54232    0.71688   1.00
C3       0.28087    0.45768    0.76644   1.00
C3a      0.23912    0.54254    0.78403   1.00
C2       0.25007    0.39488    0.74997   1.00
C2       0.25008    0.60512    0.74997   1.00
C3       0.21930    0.41595    0.73306   1.00
C3       0.26112    0.58363    0.71679   1.00
C3       0.28084    0.41637    0.76659   1.00
C3       0.23922    0.58405    0.78336   1.00
C5       0.18416    0.47772    0.71415   1.00
H1       0.26976    0.52691    0.69063   1.00
H1       0.19546    0.39979    0.72015   1.00
H1       0.26968    0.59901    0.69057   1.00
H1       0.30503    0.40099    0.77984   1.00
H1       0.23068    0.60021    0.80910   1.00
C5       0.22655    0.52228    0.82120   1.00
H1       0.30505    0.47309    0.77975   1.00
H2       0.20901    0.54256    0.83940   1.00
H2       0.20708    0.49731    0.81431   1.00
H2       0.15892    0.45744    0.71290   1.00
H2       0.17469    0.50269    0.73250   1.00
N1       0.26039    0.50857    0.84336   1.00
C6       0.28752    0.53073    0.86048   1.00
C6       0.26945    0.47154    0.85128   1.00
C6       0.31454    0.50759    0.87913   1.00
C6       0.30305    0.46995    0.87329   1.00
H3       0.28797    0.56197    0.85927   1.00
H3       0.25285    0.44700    0.84141   1.00
H3       0.33979    0.51713    0.89522   1.00
H3       0.31757    0.44425    0.88387   1.00
N1       0.19366    0.49143    0.67483   1.00
C6       0.19484    0.52846    0.66286   1.00
C6       0.20171    0.46927    0.64379   1.00
C6       0.20426    0.53005    0.62382   1.00
C6       0.20864    0.49241    0.61169   1.00
H3       0.18949    0.55300    0.68142   1.00
H3       0.20287    0.43803    0.64436   1.00
H3       0.20760    0.55575    0.60616   1.00
H3       0.21602    0.48287    0.58268   1.00
C4       0.02085    0.24982    0.75007   1.00
C4       -0.02085   0.25018    0.74993   1.00
C3a      0.04254    0.23264    0.78123   1.00
C3       -0.04232   0.21688    0.73875   1.00
C3       0.04232    0.26644    0.71913   1.00
C3a      -0.04254   0.28403    0.76088   1.00
C2       0.10512    0.24997    0.74993   1.00
C2       -0.10512   0.24997    0.74992   1.00
C3       0.08405    0.23306    0.78070   1.00
C3       -0.08363   0.21679    0.73888   1.00
C3       0.08363    0.26659    0.71916   1.00
C3       -0.08405   0.28336    0.76078   1.00
C5       0.02228    0.21415    0.81584   1.00
H1       -0.02691   0.19063    0.73024   1.00
H1       0.10021    0.22015    0.80454   1.00
H1       -0.09901   0.19057    0.73032   1.00
H1       0.09901    0.27984    0.69497   1.00
H1       -0.10021   0.30910    0.76932   1.00
C5       -0.02228   0.32120    0.77345   1.00
H1       0.02691    0.27975    0.69495   1.00
H2       -0.04256   0.33940    0.79099   1.00
H2       0.00269    0.31431    0.79292   1.00
H2       0.04256    0.21290    0.84108   1.00
H2       -0.00269   0.23250    0.82531   1.00
N1       -0.00857   0.34336    0.73961   1.00
C6       -0.03073   0.36048    0.71248   1.00
C6       0.02846    0.35128    0.73055   1.00
C6       -0.00759   0.37913    0.68546   1.00
C6       0.03005    0.37329    0.69695   1.00
H3       -0.06197   0.35927    0.71203   1.00
H3       0.05300    0.34141    0.74715   1.00
H3       -0.01713   0.39522    0.66021   1.00
H3       0.05575    0.38387    0.68243   1.00
N1       0.00857    0.17483    0.80634   1.00
C6       -0.02846   0.16286    0.80516   1.00
C6       0.03073    0.14379    0.79829   1.00
C6       -0.03005   0.12382    0.79574   1.00
C6       0.00759    0.11169    0.79136   1.00
H3       -0.05300   0.18142    0.81051   1.00
H3       0.06197    0.14436    0.79713   1.00
H3       -0.05575   0.10616    0.79240   1.00
H3       0.01713    0.08268    0.78398   1.00
C4       0.47915    0.24982    0.74993   1.00
C4       0.52085    0.25018    0.75007   1.00
C3a      0.45746    0.23264    0.71877   1.00
C3       0.54232    0.21688    0.76125   1.00
C3       0.45768    0.26644    0.78087   1.00
C3a      0.54254    0.28403    0.73912   1.00
C2       0.39488    0.24997    0.75007   1.00
C2       0.60512    0.24997    0.75008   1.00
C3       0.41595    0.23306    0.71930   1.00
C3       0.58363    0.21679    0.76112   1.00
C3       0.41637    0.26659    0.78084   1.00
C3       0.58405    0.28336    0.73922   1.00
C5       0.47772    0.21415    0.68416   1.00
H1       0.52691    0.19063    0.76976   1.00
H1       0.39979    0.22015    0.69546   1.00
H1       0.59901    0.19057    0.76968   1.00
H1       0.40099    0.27984    0.80503   1.00
H1       0.60021    0.30910    0.73068   1.00
C5       0.52228    0.32120    0.72655   1.00
H1       0.47309    0.27975    0.80505   1.00
H2       0.54256    0.33940    0.70901   1.00
H2       0.49731    0.31431    0.70708   1.00
H2       0.45744    0.21290    0.65892   1.00
H2       0.50269    0.23250    0.67469   1.00
N1       0.50857    0.34336    0.76039   1.00
C6       0.53073    0.36048    0.78752   1.00
C6       0.47154    0.35128    0.76945   1.00
C6       0.50759    0.37913    0.81454   1.00
C6       0.46995    0.37329    0.80305   1.00
H3       0.56197    0.35927    0.78797   1.00
H3       0.44700    0.34141    0.75285   1.00
H3       0.51713    0.39522    0.83979   1.00
H3       0.44425    0.38387    0.81757   1.00
N1       0.49143    0.17483    0.69366   1.00
C6       0.52846    0.16286    0.69484   1.00
C6       0.46927    0.14379    0.70171   1.00
C6       0.53005    0.12382    0.70426   1.00
C6       0.49241    0.11169    0.70864   1.00
H3       0.55300    0.18142    0.68949   1.00
H3       0.43803    0.14436    0.70287   1.00
H3       0.55575    0.10616    0.70760   1.00
H3       0.48287    0.08268    0.71602   1.00
C4       0.25007    0.02085    0.74982   1.00
C4       0.24993    -0.02085   0.75018   1.00
C3a      0.28123    0.04254    0.73264   1.00
C3       0.23875    -0.04232   0.71688   1.00
C3       0.21913    0.04232    0.76644   1.00
C3a      0.26088    -0.04254   0.78403   1.00
C2       0.24993    0.10512    0.74997   1.00
C2       0.24992    -0.10512   0.74997   1.00
C3       0.28070    0.08405    0.73306   1.00
C3       0.23888    -0.08363   0.71679   1.00
C3       0.21916    0.08363    0.76659   1.00
C3       0.26078    -0.08405   0.78336   1.00
C5       0.31584    0.02228    0.71415   1.00
H1       0.23024    -0.02691   0.69063   1.00
H1       0.30454    0.10021    0.72015   1.00
H1       0.23032    -0.09901   0.69057   1.00
H1       0.19497    0.09901    0.77984   1.00
H1       0.26932    -0.10021   0.80910   1.00
C5       0.27345    -0.02228   0.82120   1.00
H1       0.19495    0.02691    0.77975   1.00
H2       0.29099    -0.04256   0.83940   1.00
H2       0.29292    0.00269    0.81431   1.00
H2       0.34108    0.04256    0.71290   1.00
H2       0.32531    -0.00269   0.73250   1.00
N1       0.23961    -0.00857   0.84336   1.00
C6       0.21248    -0.03073   0.86048   1.00
C6       0.23055    0.02846    0.85128   1.00
C6       0.18546    -0.00759   0.87913   1.00
C6       0.19695    0.03005    0.87329   1.00
H3       0.21203    -0.06197   0.85927   1.00
H3       0.24715    0.05300    0.84141   1.00
H3       0.16021    -0.01713   0.89522   1.00
H3       0.18243    0.05575    0.88387   1.00
N1       0.30634    0.00857    0.67483   1.00
C6       0.30516    -0.02846   0.66286   1.00
C6       0.29829    0.03073    0.64379   1.00
C6       0.29574    -0.03005   0.62382   1.00
C6       0.29136    0.00759    0.61169   1.00
H3       0.31051    -0.05300   0.68142   1.00
H3       0.29713    0.06197    0.64436   1.00
H3       0.29240    -0.05575   0.60616   1.00
H3       0.28398    0.01713    0.58268   1.00
C4       0.24982    0.25007    0.52085   1.00
C4       0.25018    0.24993    0.47915   1.00
C3a      0.23264    0.28123    0.54254   1.00
C3       0.21688    0.23875    0.45768   1.00
C3       0.26644    0.21913    0.54232   1.00
C3a      0.28403    0.26088    0.45746   1.00
C2       0.24997    0.24993    0.60512   1.00
C2       0.24997    0.24992    0.39488   1.00
C3       0.23306    0.28070    0.58405   1.00
C3       0.21679    0.23888    0.41637   1.00
C3       0.26659    0.21916    0.58363   1.00
C3       0.28336    0.26078    0.41595   1.00
C5       0.21415    0.31584    0.52228   1.00
H1       0.19063    0.23024    0.47309   1.00
H1       0.22015    0.30454    0.60021   1.00
H1       0.19057    0.23032    0.40099   1.00
H1       0.27984    0.19497    0.59901   1.00
H1       0.30910    0.26932    0.39979   1.00
C5       0.32120    0.27345    0.47772   1.00
H1       0.27975    0.19495    0.52691   1.00
H2       0.33940    0.29099    0.45744   1.00
H2       0.31431    0.29292    0.50269   1.00
H2       0.21290    0.34108    0.54256   1.00
H2       0.23250    0.32531    0.49731   1.00
N1       0.34336    0.23961    0.49143   1.00
C6       0.36048    0.21248    0.46927   1.00
C6       0.35128    0.23055    0.52846   1.00
C6       0.37913    0.18546    0.49241   1.00
C6       0.37329    0.19695    0.53005   1.00
H3       0.35927    0.21203    0.43803   1.00
H3       0.34141    0.24715    0.55300   1.00
H3       0.39522    0.16021    0.48287   1.00
H3       0.38387    0.18243    0.55575   1.00
N1       0.17483    0.30634    0.50857   1.00
C6       0.16286    0.30516    0.47154   1.00
C6       0.14379    0.29829    0.53073   1.00
C6       0.12382    0.29574    0.46995   1.00
C6       0.11169    0.29136    0.50759   1.00
H3       0.18142    0.31051    0.44700   1.00
H3       0.14436    0.29713    0.56197   1.00
H3       0.10616    0.29240    0.44425   1.00
H3       0.08268    0.28398    0.51713   1.00
C4       0.24982    0.74993    0.47915   1.00
C4       0.25018    0.75007    0.52085   1.00
C3a      0.23264    0.71877    0.45746   1.00
C3       0.21688    0.76125    0.54232   1.00
C3       0.26644    0.78087    0.45768   1.00
C3a      0.28403    0.73912    0.54254   1.00
C2       0.24997    0.75007    0.39488   1.00
C2       0.24997    0.75008    0.60512   1.00
C3       0.23306    0.71930    0.41595   1.00
C3       0.21679    0.76112    0.58363   1.00
C3       0.26659    0.78084    0.41637   1.00
C3       0.28336    0.73922    0.58405   1.00
C5       0.21415    0.68416    0.47772   1.00
H1       0.19063    0.76976    0.52691   1.00
H1       0.22015    0.69546    0.39979   1.00
H1       0.19057    0.76968    0.59901   1.00
H1       0.27984    0.80503    0.40099   1.00
H1       0.30910    0.73068    0.60021   1.00
C5       0.32120    0.72655    0.52228   1.00
H1       0.27975    0.80505    0.47309   1.00
H2       0.33940    0.70901    0.54256   1.00
H2       0.31431    0.70708    0.49731   1.00
H2       0.21290    0.65892    0.45744   1.00
H2       0.23250    0.67469    0.50269   1.00
N1       0.34336    0.76039    0.50857   1.00
C6       0.36048    0.78752    0.53073   1.00
C6       0.35128    0.76945    0.47154   1.00
C6       0.37913    0.81454    0.50759   1.00
C6       0.37329    0.80305    0.46995   1.00
H3       0.35927    0.78797    0.56197   1.00
H3       0.34141    0.75285    0.44700   1.00
H3       0.39522    0.83979    0.51713   1.00
H3       0.38387    0.81757    0.44425   1.00
N1       0.17483    0.69366    0.49143   1.00
C6       0.16286    0.69484    0.52846   1.00
C6       0.14379    0.70171    0.46927   1.00
C6       0.12382    0.70426    0.53005   1.00
C6       0.11169    0.70864    0.49241   1.00
H3       0.18142    0.68949    0.55300   1.00
H3       0.14436    0.70287    0.43803   1.00
H3       0.10616    0.70760    0.55575   1.00
H3       0.08268    0.71602    0.48287   1.00
C4       0.24993    0.97915    0.24982   1.00
C4       0.25007    1.02085    0.25018   1.00
C3a      0.21877    0.95746    0.23264   1.00
C3       0.26125    1.04232    0.21688   1.00
C3       0.28087    0.95768    0.26644   1.00
C3a      0.23912    1.04254    0.28403   1.00
C2       0.25007    0.89488    0.24997   1.00
C2       0.25008    1.10512    0.24997   1.00
C3       0.21930    0.91595    0.23306   1.00
C3       0.26112    1.08363    0.21679   1.00
C3       0.28084    0.91637    0.26659   1.00
C3       0.23922    1.08405    0.28336   1.00
C5       0.18416    0.97772    0.21415   1.00
H1       0.26976    1.02691    0.19063   1.00
H1       0.19546    0.89979    0.22015   1.00
H1       0.26968    1.09901    0.19057   1.00
H1       0.30503    0.90099    0.27984   1.00
H1       0.23068    1.10021    0.30910   1.00
C5       0.22655    1.02228    0.32120   1.00
H1       0.30505    0.97309    0.27975   1.00
H2       0.20901    1.04256    0.33940   1.00
H2       0.20708    0.99731    0.31431   1.00
H2       0.15892    0.95744    0.21290   1.00
H2       0.17469    1.00269    0.23250   1.00
N1       0.26039    1.00857    0.34336   1.00
C6       0.28752    1.03073    0.36048   1.00
C6       0.26945    0.97154    0.35128   1.00
C6       0.31454    1.00759    0.37913   1.00
C6       0.30305    0.96995    0.37329   1.00
H3       0.28797    1.06197    0.35927   1.00
H3       0.25285    0.94700    0.34141   1.00
H3       0.33979    1.01713    0.39522   1.00
H3       0.31757    0.94425    0.38387   1.00
N1       0.19366    0.99143    0.17483   1.00
C6       0.19484    1.02846    0.16286   1.00
C6       0.20171    0.96927    0.14379   1.00
C6       0.20426    1.03005    0.12382   1.00
C6       0.20864    0.99241    0.11169   1.00
H3       0.18949    1.05300    0.18142   1.00
H3       0.20287    0.93803    0.14436   1.00
H3       0.20760    1.05575    0.10616   1.00
H3       0.21602    0.98287    0.08268   1.00
C4       0.02085    0.74982    0.25007   1.00
C4       -0.02085   0.75018    0.24993   1.00
C3a      0.04254    0.73264    0.28123   1.00
C3       -0.04232   0.71688    0.23875   1.00
C3       0.04232    0.76644    0.21913   1.00
C3a      -0.04254   0.78403    0.26088   1.00
C2       0.10512    0.74997    0.24993   1.00
C2       -0.10512   0.74997    0.24992   1.00
C3       0.08405    0.73306    0.28070   1.00
C3       -0.08363   0.71679    0.23888   1.00
C3       0.08363    0.76659    0.21916   1.00
C3       -0.08405   0.78336    0.26078   1.00
C5       0.02228    0.71415    0.31584   1.00
H1       -0.02691   0.69063    0.23024   1.00
H1       0.10021    0.72015    0.30454   1.00
H1       -0.09901   0.69057    0.23032   1.00
H1       0.09901    0.77984    0.19497   1.00
H1       -0.10021   0.80910    0.26932   1.00
C5       -0.02228   0.82120    0.27345   1.00
H1       0.02691    0.77975    0.19495   1.00
H2       -0.04256   0.83940    0.29099   1.00
H2       0.00269    0.81431    0.29292   1.00
H2       0.04256    0.71290    0.34108   1.00
H2       -0.00269   0.73250    0.32531   1.00
N1       -0.00857   0.84336    0.23961   1.00
C6       -0.03073   0.86048    0.21248   1.00
C6       0.02846    0.85128    0.23055   1.00
C6       -0.00759   0.87913    0.18546   1.00
C6       0.03005    0.87329    0.19695   1.00
H3       -0.06197   0.85927    0.21203   1.00
H3       0.05300    0.84141    0.24715   1.00
H3       -0.01713   0.89522    0.16021   1.00
H3       0.05575    0.88387    0.18243   1.00
N1       0.00857    0.67483    0.30634   1.00
C6       -0.02846   0.66286    0.30516   1.00
C6       0.03073    0.64379    0.29829   1.00
C6       -0.03005   0.62382    0.29574   1.00
C6       0.00759    0.61169    0.29136   1.00
H3       -0.05300   0.68142    0.31051   1.00
H3       0.06197    0.64436    0.29713   1.00
H3       -0.05575   0.60616    0.29240   1.00
H3       0.01713    0.58268    0.28398   1.00
C4       0.47915    0.74982    0.24993   1.00
C4       0.52085    0.75018    0.25007   1.00
C3a      0.45746    0.73264    0.21877   1.00
C3       0.54232    0.71688    0.26125   1.00
C3       0.45768    0.76644    0.28087   1.00
C3a      0.54254    0.78403    0.23912   1.00
C2       0.39488    0.74997    0.25007   1.00
C2       0.60512    0.74997    0.25008   1.00
C3       0.41595    0.73306    0.21930   1.00
C3       0.58363    0.71679    0.26112   1.00
C3       0.41637    0.76659    0.28084   1.00
C3       0.58405    0.78336    0.23922   1.00
C5       0.47772    0.71415    0.18416   1.00
H1       0.52691    0.69063    0.26976   1.00
H1       0.39979    0.72015    0.19546   1.00
H1       0.59901    0.69057    0.26968   1.00
H1       0.40099    0.77984    0.30503   1.00
H1       0.60021    0.80910    0.23068   1.00
C5       0.52228    0.82120    0.22655   1.00
H1       0.47309    0.77975    0.30505   1.00
H2       0.54256    0.83940    0.20901   1.00
H2       0.49731    0.81431    0.20708   1.00
H2       0.45744    0.71290    0.15892   1.00
H2       0.50269    0.73250    0.17469   1.00
N1       0.50857    0.84336    0.26039   1.00
C6       0.53073    0.86048    0.28752   1.00
C6       0.47154    0.85128    0.26945   1.00
C6       0.50759    0.87913    0.31454   1.00
C6       0.46995    0.87329    0.30305   1.00
H3       0.56197    0.85927    0.28797   1.00
H3       0.44700    0.84141    0.25285   1.00
H3       0.51713    0.89522    0.33979   1.00
H3       0.44425    0.88387    0.31757   1.00
N1       0.49143    0.67483    0.19366   1.00
C6       0.52846    0.66286    0.19484   1.00
C6       0.46927    0.64379    0.20171   1.00
C6       0.53005    0.62382    0.20426   1.00
C6       0.49241    0.61169    0.20864   1.00
H3       0.55300    0.68142    0.18949   1.00
H3       0.43803    0.64436    0.20287   1.00
H3       0.55575    0.60616    0.20760   1.00
H3       0.48287    0.58268    0.21602   1.00
C4       0.25007    0.52085    0.24982   1.00
C4       0.24993    0.47915    0.25018   1.00
C3a      0.28123    0.54254    0.23264   1.00
C3       0.23875    0.45768    0.21688   1.00
C3       0.21913    0.54232    0.26644   1.00
C3a      0.26088    0.45746    0.28403   1.00
C2       0.24993    0.60512    0.24997   1.00
C2       0.24992    0.39488    0.24997   1.00
C3       0.28070    0.58405    0.23306   1.00
C3       0.23888    0.41637    0.21679   1.00
C3       0.21916    0.58363    0.26659   1.00
C3       0.26078    0.41595    0.28336   1.00
C5       0.31584    0.52228    0.21415   1.00
H1       0.23024    0.47309    0.19063   1.00
H1       0.30454    0.60021    0.22015   1.00
H1       0.23032    0.40099    0.19057   1.00
H1       0.19497    0.59901    0.27984   1.00
H1       0.26932    0.39979    0.30910   1.00
C5       0.27345    0.47772    0.32120   1.00
H1       0.19495    0.52691    0.27975   1.00
H2       0.29099    0.45744    0.33940   1.00
H2       0.29292    0.50269    0.31431   1.00
H2       0.34108    0.54256    0.21290   1.00
H2       0.32531    0.49731    0.23250   1.00
N1       0.23961    0.49143    0.34336   1.00
C6       0.21248    0.46927    0.36048   1.00
C6       0.23055    0.52846    0.35128   1.00
C6       0.18546    0.49241    0.37913   1.00
C6       0.19695    0.53005    0.37329   1.00
H3       0.21203    0.43803    0.35927   1.00
H3       0.24715    0.55300    0.34141   1.00
H3       0.16021    0.48287    0.39522   1.00
H3       0.18243    0.55575    0.38387   1.00
N1       0.30634    0.50857    0.17483   1.00
C6       0.30516    0.47154    0.16286   1.00
C6       0.29829    0.53073    0.14379   1.00
C6       0.29574    0.46995    0.12382   1.00
C6       0.29136    0.50759    0.11169   1.00
H3       0.31051    0.44700    0.18142   1.00
H3       0.29713    0.56197    0.14436   1.00
H3       0.29240    0.44425    0.10616   1.00
H3       0.28398    0.51713    0.08268   1.00
C4       0.24982    0.75007    0.02085   1.00
C4       0.25018    0.74993    -0.02085   1.00
C3a      0.23264    0.78123    0.04254   1.00
C3       0.21688    0.73875    -0.04232   1.00
C3       0.26644    0.71913    0.04232   1.00
C3a      0.28403    0.76088    -0.04254   1.00
C2       0.24997    0.74993    0.10512   1.00
C2       0.24997    0.74992    -0.10512   1.00
C3       0.23306    0.78070    0.08405   1.00
C3       0.21679    0.73888    -0.08363   1.00
C3       0.26659    0.71916    0.08363   1.00
C3       0.28336    0.76078    -0.08405   1.00
C5       0.21415    0.81584    0.02228   1.00
H1       0.19063    0.73024    -0.02691   1.00
H1       0.22015    0.80454    0.10021   1.00
H1       0.19057    0.73032    -0.09901   1.00
H1       0.27984    0.69497    0.09901   1.00
H1       0.30910    0.76932    -0.10021   1.00
C5       0.32120    0.77345    -0.02228   1.00
H1       0.27975    0.69495    0.02691   1.00
H2       0.33940    0.79099    -0.04256   1.00
H2       0.31431    0.79292    0.00269   1.00
H2       0.21290    0.84108    0.04256   1.00
H2       0.23250    0.82531    -0.00269   1.00
N1       0.34336    0.73961    -0.00857   1.00
C6       0.36048    0.71248    -0.03073   1.00
C6       0.35128    0.73055    0.02846   1.00
C6       0.37913    0.68546    -0.00759   1.00
C6       0.37329    0.69695    0.03005   1.00
H3       0.35927    0.71203    -0.06197   1.00
H3       0.34141    0.74715    0.05300   1.00
H3       0.39522    0.66021    -0.01713   1.00
H3       0.38387    0.68243    0.05575   1.00
N1       0.17483    0.80634    0.00857   1.00
C6       0.16286    0.80516    -0.02846   1.00
C6       0.14379    0.79829    0.03073   1.00
C6       0.12382    0.79574    -0.03005   1.00
C6       0.11169    0.79136    0.00759   1.00
H3       0.18142    0.81051    -0.05300   1.00
H3       0.14436    0.79713    0.06197   1.00
H3       0.10616    0.79240    -0.05575   1.00
H3       0.08268    0.78398    0.01713   1.00
C4       0.74982    0.24993    0.47915   1.00
C4       0.75018    0.25007    0.52085   1.00
C3a      0.73264    0.21877    0.45746   1.00
C3       0.71688    0.26125    0.54232   1.00
C3       0.76644    0.28087    0.45768   1.00
C3a      0.78403    0.23912    0.54254   1.00
C2       0.74997    0.25007    0.39488   1.00
C2       0.74997    0.25008    0.60512   1.00
C3       0.73306    0.21930    0.41595   1.00
C3       0.71679    0.26112    0.58363   1.00
C3       0.76659    0.28084    0.41637   1.00
C3       0.78336    0.23922    0.58405   1.00
C5       0.71415    0.18416    0.47772   1.00
H1       0.69063    0.26976    0.52691   1.00
H1       0.72015    0.19546    0.39979   1.00
H1       0.69057    0.26968    0.59901   1.00
H1       0.77984    0.30503    0.40099   1.00
H1       0.80910    0.23068    0.60021   1.00
C5       0.82120    0.22655    0.52228   1.00
H1       0.77975    0.30505    0.47309   1.00
H2       0.83940    0.20901    0.54256   1.00
H2       0.81431    0.20708    0.49731   1.00
H2       0.71290    0.15892    0.45744   1.00
H2       0.73250    0.17469    0.50269   1.00
N1       0.84336    0.26039    0.50857   1.00
C6       0.86048    0.28752    0.53073   1.00
C6       0.85128    0.26945    0.47154   1.00
C6       0.87913    0.31454    0.50759   1.00
C6       0.87329    0.30305    0.46995   1.00
H3       0.85927    0.28797    0.56197   1.00
H3       0.84141    0.25285    0.44700   1.00
H3       0.89522    0.33979    0.51713   1.00
H3       0.88387    0.31757    0.44425   1.00
N1       0.67483    0.19366    0.49143   1.00
C6       0.66286    0.19484    0.52846   1.00
C6       0.64379    0.20171    0.46927   1.00
C6       0.62382    0.20426    0.53005   1.00
C6       0.61169    0.20864    0.49241   1.00
H3       0.68142    0.18949    0.55300   1.00
H3       0.64436    0.20287    0.43803   1.00
H3       0.60616    0.20760    0.55575   1.00
H3       0.58268    0.21602    0.48287   1.00
C4       0.74993    0.47915    0.24982   1.00
C4       0.75007    0.52085    0.25018   1.00
C3a      0.71877    0.45746    0.23264   1.00
C3       0.76125    0.54232    0.21688   1.00
C3       0.78087    0.45768    0.26644   1.00
C3a      0.73912    0.54254    0.28403   1.00
C2       0.75007    0.39488    0.24997   1.00
C2       0.75008    0.60512    0.24997   1.00
C3       0.71930    0.41595    0.23306   1.00
C3       0.76112    0.58363    0.21679   1.00
C3       0.78084    0.41637    0.26659   1.00
C3       0.73922    0.58405    0.28336   1.00
C5       0.68416    0.47772    0.21415   1.00
H1       0.76976    0.52691    0.19063   1.00
H1       0.69546    0.39979    0.22015   1.00
H1       0.76968    0.59901    0.19057   1.00
H1       0.80503    0.40099    0.27984   1.00
H1       0.73068    0.60021    0.30910   1.00
C5       0.72655    0.52228    0.32120   1.00
H1       0.80505    0.47309    0.27975   1.00
H2       0.70901    0.54256    0.33940   1.00
H2       0.70708    0.49731    0.31431   1.00
H2       0.65892    0.45744    0.21290   1.00
H2       0.67469    0.50269    0.23250   1.00
N1       0.76039    0.50857    0.34336   1.00
C6       0.78752    0.53073    0.36048   1.00
C6       0.76945    0.47154    0.35128   1.00
C6       0.81454    0.50759    0.37913   1.00
C6       0.80305    0.46995    0.37329   1.00
H3       0.78797    0.56197    0.35927   1.00
H3       0.75285    0.44700    0.34141   1.00
H3       0.83979    0.51713    0.39522   1.00
H3       0.81757    0.44425    0.38387   1.00
N1       0.69366    0.49143    0.17483   1.00
C6       0.69484    0.52846    0.16286   1.00
C6       0.70171    0.46927    0.14379   1.00
C6       0.70426    0.53005    0.12382   1.00
C6       0.70864    0.49241    0.11169   1.00
H3       0.68949    0.55300    0.18142   1.00
H3       0.70287    0.43803    0.14436   1.00
H3       0.70760    0.55575    0.10616   1.00
H3       0.71602    0.48287    0.08268   1.00
C4       0.52085    0.24982    0.25007   1.00
C4       0.47915    0.25018    0.24993   1.00
C3a      0.54254    0.23264    0.28123   1.00
C3       0.45768    0.21688    0.23875   1.00
C3       0.54232    0.26644    0.21913   1.00
C3a      0.45746    0.28403    0.26088   1.00
C2       0.60512    0.24997    0.24993   1.00
C2       0.39488    0.24997    0.24992   1.00
C3       0.58405    0.23306    0.28070   1.00
C3       0.41637    0.21679    0.23888   1.00
C3       0.58363    0.26659    0.21916   1.00
C3       0.41595    0.28336    0.26078   1.00
C5       0.52228    0.21415    0.31584   1.00
H1       0.47309    0.19063    0.23024   1.00
H1       0.60021    0.22015    0.30454   1.00
H1       0.40099    0.19057    0.23032   1.00
H1       0.59901    0.27984    0.19497   1.00
H1       0.39979    0.30910    0.26932   1.00
C5       0.47772    0.32120    0.27345   1.00
H1       0.52691    0.27975    0.19495   1.00
H2       0.45744    0.33940    0.29099   1.00
H2       0.50269    0.31431    0.29292   1.00
H2       0.54256    0.21290    0.34108   1.00
H2       0.49731    0.23250    0.32531   1.00
N1       0.49143    0.34336    0.23961   1.00
C6       0.46927    0.36048    0.21248   1.00
C6       0.52846    0.35128    0.23055   1.00
C6       0.49241    0.37913    0.18546   1.00
C6       0.53005    0.37329    0.19695   1.00
H3       0.43803    0.35927    0.21203   1.00
H3       0.55300    0.34141    0.24715   1.00
H3       0.48287    0.39522    0.16021   1.00
H3       0.55575    0.38387    0.18243   1.00
N1       0.50857    0.17483    0.30634   1.00
C6       0.47154    0.16286    0.30516   1.00
C6       0.53073    0.14379    0.29829   1.00
C6       0.46995    0.12382    0.29574   1.00
C6       0.50759    0.11169    0.29136   1.00
H3       0.44700    0.18142    0.31051   1.00
H3       0.56197    0.14436    0.29713   1.00
H3       0.44425    0.10616    0.29240   1.00
H3       0.51713    0.08268    0.28398   1.00
C4       0.97915    0.24982    0.24993   1.00
C4       1.02085    0.25018    0.25007   1.00
C3a      0.95746    0.23264    0.21877   1.00
C3       1.04232    0.21688    0.26125   1.00
C3       0.95768    0.26644    0.28087   1.00
C3a      1.04254    0.28403    0.23912   1.00
C2       0.89488    0.24997    0.25007   1.00
C2       1.10512    0.24997    0.25008   1.00
C3       0.91595    0.23306    0.21930   1.00
C3       1.08363    0.21679    0.26112   1.00
C3       0.91637    0.26659    0.28084   1.00
C3       1.08405    0.28336    0.23922   1.00
C5       0.97772    0.21415    0.18416   1.00
H1       1.02691    0.19063    0.26976   1.00
H1       0.89979    0.22015    0.19546   1.00
H1       1.09901    0.19057    0.26968   1.00
H1       0.90099    0.27984    0.30503   1.00
H1       1.10021    0.30910    0.23068   1.00
C5       1.02228    0.32120    0.22655   1.00
H1       0.97309    0.27975    0.30505   1.00
H2       1.04256    0.33940    0.20901   1.00
H2       0.99731    0.31431    0.20708   1.00
H2       0.95744    0.21290    0.15892   1.00
H2       1.00269    0.23250    0.17469   1.00
N1       1.00857    0.34336    0.26039   1.00
C6       1.03073    0.36048    0.28752   1.00
C6       0.97154    0.35128    0.26945   1.00
C6       1.00759    0.37913    0.31454   1.00
C6       0.96995    0.37329    0.30305   1.00
H3       1.06197    0.35927    0.28797   1.00
H3       0.94700    0.34141    0.25285   1.00
H3       1.01713    0.39522    0.33979   1.00
H3       0.94425    0.38387    0.31757   1.00
N1       0.99143    0.17483    0.19366   1.00
C6       1.02846    0.16286    0.19484   1.00
C6       0.96927    0.14379    0.20171   1.00
C6       1.03005    0.12382    0.20426   1.00
C6       0.99241    0.11169    0.20864   1.00
H3       1.05300    0.18142    0.18949   1.00
H3       0.93803    0.14436    0.20287   1.00
H3       1.05575    0.10616    0.20760   1.00
H3       0.98287    0.08268    0.21602   1.00
C4       0.75007    0.02085    0.24982   1.00
C4       0.74993    -0.02085   0.25018   1.00
C3a      0.78123    0.04254    0.23264   1.00
C3       0.73875    -0.04232   0.21688   1.00
C3       0.71913    0.04232    0.26644   1.00
C3a      0.76088    -0.04254   0.28403   1.00
C2       0.74993    0.10512    0.24997   1.00
C2       0.74992    -0.10512   0.24997   1.00
C3       0.78070    0.08405    0.23306   1.00
C3       0.73888    -0.08363   0.21679   1.00
C3       0.71916    0.08363    0.26659   1.00
C3       0.76078    -0.08405   0.28336   1.00
C5       0.81584    0.02228    0.21415   1.00
H1       0.73024    -0.02691   0.19063   1.00
H1       0.80454    0.10021    0.22015   1.00
H1       0.73032    -0.09901   0.19057   1.00
H1       0.69497    0.09901    0.27984   1.00
H1       0.76932    -0.10021   0.30910   1.00
C5       0.77345    -0.02228   0.32120   1.00
H1       0.69495    0.02691    0.27975   1.00
H2       0.79099    -0.04256   0.33940   1.00
H2       0.79292    0.00269    0.31431   1.00
H2       0.84108    0.04256    0.21290   1.00
H2       0.82531    -0.00269   0.23250   1.00
N1       0.73961    -0.00857   0.34336   1.00
C6       0.71248    -0.03073   0.36048   1.00
C6       0.73055    0.02846    0.35128   1.00
C6       0.68546    -0.00759   0.37913   1.00
C6       0.69695    0.03005    0.37329   1.00
H3       0.71203    -0.06197   0.35927   1.00
H3       0.74715    0.05300    0.34141   1.00
H3       0.66021    -0.01713   0.39522   1.00
H3       0.68243    0.05575    0.38387   1.00
N1       0.80634    0.00857    0.17483   1.00
C6       0.80516    -0.02846   0.16286   1.00
C6       0.79829    0.03073    0.14379   1.00
C6       0.79574    -0.03005   0.12382   1.00
C6       0.79136    0.00759    0.11169   1.00
H3       0.81051    -0.05300   0.18142   1.00
H3       0.79713    0.06197    0.14436   1.00
H3       0.79240    -0.05575   0.10616   1.00
H3       0.78398    0.01713    0.08268   1.00
C4       0.74982    0.25007    0.02085   1.00
C4       0.75018    0.24993    -0.02085   1.00
C3a      0.73264    0.28123    0.04254   1.00
C3       0.71688    0.23875    -0.04232   1.00
C3       0.76644    0.21913    0.04232   1.00
C3a      0.78403    0.26088    -0.04254   1.00
C2       0.74997    0.24993    0.10512   1.00
C2       0.74997    0.24992    -0.10512   1.00
C3       0.73306    0.28070    0.08405   1.00
C3       0.71679    0.23888    -0.08363   1.00
C3       0.76659    0.21916    0.08363   1.00
C3       0.78336    0.26078    -0.08405   1.00
C5       0.71415    0.31584    0.02228   1.00
H1       0.69063    0.23024    -0.02691   1.00
H1       0.72015    0.30454    0.10021   1.00
H1       0.69057    0.23032    -0.09901   1.00
H1       0.77984    0.19497    0.09901   1.00
H1       0.80910    0.26932    -0.10021   1.00
C5       0.82120    0.27345    -0.02228   1.00
H1       0.77975    0.19495    0.02691   1.00
H2       0.83940    0.29099    -0.04256   1.00
H2       0.81431    0.29292    0.00269   1.00
H2       0.71290    0.34108    0.04256   1.00
H2       0.73250    0.32531    -0.00269   1.00
N1       0.84336    0.23961    -0.00857   1.00
C6       0.86048    0.21248    -0.03073   1.00
C6       0.85128    0.23055    0.02846   1.00
C6       0.87913    0.18546    -0.00759   1.00
C6       0.87329    0.19695    0.03005   1.00
H3       0.85927    0.21203    -0.06197   1.00
H3       0.84141    0.24715    0.05300   1.00
H3       0.89522    0.16021    -0.01713   1.00
H3       0.88387    0.18243    0.05575   1.00
N1       0.67483    0.30634    0.00857   1.00
C6       0.66286    0.30516    -0.02846   1.00
C6       0.64379    0.29829    0.03073   1.00
C6       0.62382    0.29574    -0.03005   1.00
C6       0.61169    0.29136    0.00759   1.00
H3       0.68142    0.31051    -0.05300   1.00
H3       0.64436    0.29713    0.06197   1.00
H3       0.60616    0.29240    -0.05575   1.00
H3       0.58268    0.28398    0.01713   1.00
