data_IRMOF10_SG202_Ligand3_label_b.

_audit_creation_method             'generated by an auxiliary program of Tobunporous'

_symmetry_space_group_name_H-M     'P 1'
_symmetry_Int_Tables_number        1
_symmetry_cell_setting             triclinic

_cell_length_a                    34.2800
_cell_length_b                    34.2800
_cell_length_c                    34.2800
_cell_angle_alpha                 90.0000
_cell_angle_beta                  90.0000
_cell_angle_gamma                 90.0000

loop_
_atom_site_label
_atom_site_fract_x
_atom_site_fract_y
_atom_site_fract_z
_atom_site_occupancy
O1       0.75000    0.75000    0.75000   1.00
Zn1      0.71720    0.78280    0.78280   1.00
Zn1      0.78280    0.71720    0.78280   1.00
Zn1      0.78280    0.78280    0.71720   1.00
Zn1      0.71720    0.71720    0.71720   1.00
O2       0.72650    0.77350    0.83820   1.00
O2       0.72650    0.83820    0.77350   1.00
O2       0.66180    0.77350    0.77350   1.00
O2       0.77350    0.72650    0.83820   1.00
O2       0.83820    0.72650    0.77350   1.00
O2       0.77350    0.66180    0.77350   1.00
O2       0.77350    0.83820    0.72650   1.00
O2       0.83820    0.77350    0.72650   1.00
O2       0.77350    0.77350    0.66180   1.00
O2       0.66180    0.72650    0.72650   1.00
O2       0.72650    0.66180    0.72650   1.00
O2       0.72650    0.72650    0.66180   1.00
C1       0.75000    0.75000    0.85520   1.00
C1       0.75000    0.85520    0.75000   1.00
C1       0.64480    0.75000    0.75000   1.00
C1       0.85520    0.75000    0.75000   1.00
C1       0.75000    0.64480    0.75000   1.00
C1       0.75000    0.75000    0.64480   1.00
O1       0.25000    0.25000    0.75000   1.00
Zn1      0.21720    0.28280    0.78280   1.00
Zn1      0.28280    0.21720    0.78280   1.00
Zn1      0.28280    0.28280    0.71720   1.00
Zn1      0.21720    0.21720    0.71720   1.00
O2       0.22650    0.27350    0.83820   1.00
O2       0.22650    0.33820    0.77350   1.00
O2       0.16180    0.27350    0.77350   1.00
O2       0.27350    0.22650    0.83820   1.00
O2       0.33820    0.22650    0.77350   1.00
O2       0.27350    0.16180    0.77350   1.00
O2       0.27350    0.33820    0.72650   1.00
O2       0.33820    0.27350    0.72650   1.00
O2       0.27350    0.27350    0.66180   1.00
O2       0.16180    0.22650    0.72650   1.00
O2       0.22650    0.16180    0.72650   1.00
O2       0.22650    0.22650    0.66180   1.00
C1       0.25000    0.25000    0.85520   1.00
C1       0.25000    0.35520    0.75000   1.00
C1       0.14480    0.25000    0.75000   1.00
C1       0.35520    0.25000    0.75000   1.00
C1       0.25000    0.14480    0.75000   1.00
C1       0.25000    0.25000    0.64480   1.00
O1       0.25000    0.75000    0.25000   1.00
Zn1      0.21720    0.78280    0.28280   1.00
Zn1      0.28280    0.71720    0.28280   1.00
Zn1      0.28280    0.78280    0.21720   1.00
Zn1      0.21720    0.71720    0.21720   1.00
O2       0.22650    0.77350    0.33820   1.00
O2       0.22650    0.83820    0.27350   1.00
O2       0.16180    0.77350    0.27350   1.00
O2       0.27350    0.72650    0.33820   1.00
O2       0.33820    0.72650    0.27350   1.00
O2       0.27350    0.66180    0.27350   1.00
O2       0.27350    0.83820    0.22650   1.00
O2       0.33820    0.77350    0.22650   1.00
O2       0.27350    0.77350    0.16180   1.00
O2       0.16180    0.72650    0.22650   1.00
O2       0.22650    0.66180    0.22650   1.00
O2       0.22650    0.72650    0.16180   1.00
C1       0.25000    0.75000    0.35520   1.00
C1       0.25000    0.85520    0.25000   1.00
C1       0.14480    0.75000    0.25000   1.00
C1       0.35520    0.75000    0.25000   1.00
C1       0.25000    0.64480    0.25000   1.00
C1       0.25000    0.75000    0.14480   1.00
O1       0.75000    0.25000    0.25000   1.00
Zn1      0.71720    0.28280    0.28280   1.00
Zn1      0.78280    0.21720    0.28280   1.00
Zn1      0.78280    0.28280    0.21720   1.00
Zn1      0.71720    0.21720    0.21720   1.00
O2       0.72650    0.27350    0.33820   1.00
O2       0.72650    0.33820    0.27350   1.00
O2       0.66180    0.27350    0.27350   1.00
O2       0.77350    0.22650    0.33820   1.00
O2       0.83820    0.22650    0.27350   1.00
O2       0.77350    0.16180    0.27350   1.00
O2       0.77350    0.33820    0.22650   1.00
O2       0.83820    0.27350    0.22650   1.00
O2       0.77350    0.27350    0.16180   1.00
O2       0.66180    0.22650    0.22650   1.00
O2       0.72650    0.16180    0.22650   1.00
O2       0.72650    0.22650    0.16180   1.00
C1       0.75000    0.25000    0.35520   1.00
C1       0.75000    0.35520    0.25000   1.00
C1       0.64480    0.25000    0.25000   1.00
C1       0.85520    0.25000    0.25000   1.00
C1       0.75000    0.14480    0.25000   1.00
C1       0.75000    0.25000    0.14480   1.00
O1       0.25000    0.25000    0.25000   1.00
Zn1      0.28280    0.21720    0.21720   1.00
Zn1      0.21720    0.28280    0.21720   1.00
Zn1      0.21720    0.21720    0.28280   1.00
Zn1      0.28280    0.28280    0.28280   1.00
O2       0.27350    0.22650    0.16180   1.00
O2       0.27350    0.16180    0.22650   1.00
O2       0.33820    0.22650    0.22650   1.00
O2       0.22650    0.27350    0.16180   1.00
O2       0.16180    0.27350    0.22650   1.00
O2       0.22650    0.33820    0.22650   1.00
O2       0.22650    0.16180    0.27350   1.00
O2       0.16180    0.22650    0.27350   1.00
O2       0.22650    0.22650    0.33820   1.00
O2       0.33820    0.27350    0.27350   1.00
O2       0.27350    0.33820    0.27350   1.00
O2       0.27350    0.27350    0.33820   1.00
C1       0.25000    0.25000    0.14480   1.00
C1       0.25000    0.14480    0.25000   1.00
C1       0.35520    0.25000    0.25000   1.00
C1       0.14480    0.25000    0.25000   1.00
C1       0.25000    0.35520    0.25000   1.00
C1       0.25000    0.25000    0.35520   1.00
O1       0.75000    0.75000    0.25000   1.00
Zn1      0.78280    0.71720    0.21720   1.00
Zn1      0.71720    0.78280    0.21720   1.00
Zn1      0.71720    0.71720    0.28280   1.00
Zn1      0.78280    0.78280    0.28280   1.00
O2       0.77350    0.72650    0.16180   1.00
O2       0.77350    0.66180    0.22650   1.00
O2       0.83820    0.72650    0.22650   1.00
O2       0.72650    0.77350    0.16180   1.00
O2       0.66180    0.77350    0.22650   1.00
O2       0.72650    0.83820    0.22650   1.00
O2       0.72650    0.66180    0.27350   1.00
O2       0.66180    0.72650    0.27350   1.00
O2       0.72650    0.72650    0.33820   1.00
O2       0.83820    0.77350    0.27350   1.00
O2       0.77350    0.83820    0.27350   1.00
O2       0.77350    0.77350    0.33820   1.00
C1       0.75000    0.75000    0.14480   1.00
C1       0.75000    0.64480    0.25000   1.00
C1       0.85520    0.75000    0.25000   1.00
C1       0.64480    0.75000    0.25000   1.00
C1       0.75000    0.85520    0.25000   1.00
C1       0.75000    0.75000    0.35520   1.00
O1       0.75000    0.25000    0.75000   1.00
Zn1      0.78280    0.21720    0.71720   1.00
Zn1      0.71720    0.28280    0.71720   1.00
Zn1      0.71720    0.21720    0.78280   1.00
Zn1      0.78280    0.28280    0.78280   1.00
O2       0.77350    0.22650    0.66180   1.00
O2       0.77350    0.16180    0.72650   1.00
O2       0.83820    0.22650    0.72650   1.00
O2       0.72650    0.27350    0.66180   1.00
O2       0.66180    0.27350    0.72650   1.00
O2       0.72650    0.33820    0.72650   1.00
O2       0.72650    0.16180    0.77350   1.00
O2       0.66180    0.22650    0.77350   1.00
O2       0.72650    0.22650    0.83820   1.00
O2       0.83820    0.27350    0.77350   1.00
O2       0.77350    0.33820    0.77350   1.00
O2       0.77350    0.27350    0.83820   1.00
C1       0.75000    0.25000    0.64480   1.00
C1       0.75000    0.14480    0.75000   1.00
C1       0.85520    0.25000    0.75000   1.00
C1       0.64480    0.25000    0.75000   1.00
C1       0.75000    0.35520    0.75000   1.00
C1       0.75000    0.25000    0.85520   1.00
O1       0.25000    0.75000    0.75000   1.00
Zn1      0.28280    0.71720    0.71720   1.00
Zn1      0.21720    0.78280    0.71720   1.00
Zn1      0.21720    0.71720    0.78280   1.00
Zn1      0.28280    0.78280    0.78280   1.00
O2       0.27350    0.72650    0.66180   1.00
O2       0.27350    0.66180    0.72650   1.00
O2       0.33820    0.72650    0.72650   1.00
O2       0.22650    0.77350    0.66180   1.00
O2       0.16180    0.77350    0.72650   1.00
O2       0.22650    0.83820    0.72650   1.00
O2       0.22650    0.66180    0.77350   1.00
O2       0.16180    0.72650    0.77350   1.00
O2       0.22650    0.72650    0.83820   1.00
O2       0.33820    0.77350    0.77350   1.00
O2       0.27350    0.83820    0.77350   1.00
O2       0.27350    0.77350    0.83820   1.00
C1       0.25000    0.75000    0.64480   1.00
C1       0.25000    0.64480    0.75000   1.00
C1       0.35520    0.75000    0.75000   1.00
C1       0.14480    0.75000    0.75000   1.00
C1       0.25000    0.85520    0.75000   1.00
C1       0.25000    0.75000    0.85520   1.00
C4       0.75116    0.75281    1.02084   1.00
C4       0.75145    0.75215    0.97912   1.00
C3       0.77943    0.77276    1.04364   1.00
C3       0.78194    0.76831    0.95616   1.00
C3       0.72141    0.73198    1.04123   1.00
C3       0.71962    0.73451    0.95886   1.00
C2       0.74966    0.75115    1.10512   1.00
C2       0.75034    0.74885    0.89488   1.00
C3       0.77886    0.77178    1.08462   1.00
C3       0.78124    0.76704    0.91519   1.00
C3       0.72091    0.73196    1.08258   1.00
C3       0.72029    0.73206    0.91762   1.00
H1       0.80119    0.78869    1.03115   1.00
H1       0.80566    0.78126    0.96852   1.00
C5       0.69225    0.71144    1.02020   1.00
C5       0.68745    0.71911    0.97980   1.00
H1       0.80023    0.78652    1.09955   1.00
H1       0.80392    0.77950    0.90010   1.00
H1       0.69877    0.71779    1.09680   1.00
H1       0.69853    0.71716    0.90368   1.00
O3       0.66766    0.68623    1.03961   1.00
O3       0.65321    0.70906    0.96099   1.00
Si1      0.67862    0.63994    1.04247   1.00
Si1      0.62071    0.74288    0.95279   1.00
C6       0.64131    0.62657    1.07538   1.00
C6       0.67075    0.61936    0.99598   1.00
C6       0.72528    0.63125    1.06253   1.00
C6       0.63169    0.79126    0.96693   1.00
C6       0.61448    0.74095    0.90198   1.00
C6       0.57686    0.72748    0.97477   1.00
C6       0.63630    0.65362    1.11194   1.00
H2       0.61504    0.63105    1.05791   1.00
C6       0.63823    0.58379    1.09147   1.00
H2       0.64915    0.63919    0.98358   1.00
C6       0.70547    0.61876    0.96634   1.00
C6       0.65212    0.57774    0.99336   1.00
H2       0.72510    0.65004    1.08831   1.00
C6       0.73401    0.58901    1.07772   1.00
C6       0.76270    0.64248    1.03849   1.00
C6       0.64196    0.79903    1.01071   1.00
C6       0.66134    0.81579    0.94225   1.00
H2       0.60394    0.80614    0.96212   1.00
H2       0.64183    0.75253    0.89051   1.00
C6       0.61041    0.69922    0.88378   1.00
C6       0.58114    0.76634    0.88393   1.00
H2       0.56446    0.70700    0.95375   1.00
C6       0.58089    0.70373    1.01336   1.00
C6       0.54448    0.75881    0.98244   1.00
H2       0.63186    0.68403    1.10346   1.00
H2       0.66191    0.65230    1.13090   1.00
H2       0.61082    0.64514    1.12917   1.00
H2       0.60762    0.57604    1.09608   1.00
H2       0.65063    0.56224    1.07178   1.00
H2       0.65275    0.58039    1.11964   1.00
H2       0.69494    0.61323    0.93672   1.00
H2       0.72079    0.64655    0.96532   1.00
H2       0.72637    0.59582    0.97352   1.00
H2       0.62420    0.57651    1.00862   1.00
H2       0.64605    0.56963    0.96308   1.00
H2       0.67161    0.55563    1.00550   1.00
H2       0.72830    0.56726    1.05514   1.00
H2       0.76436    0.58565    1.08708   1.00
H2       0.71663    0.58213    1.10332   1.00
H2       0.77192    0.61901    1.01902   1.00
H2       0.75899    0.66832    1.02068   1.00
H2       0.78705    0.64835    1.05828   1.00
H2       0.67255    0.79297    1.01688   1.00
H2       0.63687    0.82965    1.01809   1.00
H2       0.62420    0.78165    1.03048   1.00
H2       0.66083    0.84641    0.95125   1.00
H2       0.69122    0.80565    0.94574   1.00
H2       0.65427    0.81551    0.91122   1.00
H2       0.61339    0.70058    0.85202   1.00
H2       0.63324    0.67963    0.89435   1.00
H2       0.58218    0.68604    0.89035   1.00
H2       0.58240    0.79646    0.89416   1.00
H2       0.58379    0.76721    0.85212   1.00
H2       0.55239    0.75444    0.89085   1.00
H2       0.59447    0.72073    1.03656   1.00
H2       0.55261    0.69337    1.02381   1.00
H2       0.59883    0.67811    1.00834   1.00
H2       0.51690    0.74487    0.99044   1.00
H2       0.55264    0.77842    1.00622   1.00
H2       0.53870    0.77638    0.95657   1.00
C4       0.75281    1.02084    0.75116   1.00
C4       0.75215    0.97912    0.75145   1.00
C3       0.77276    1.04364    0.77943   1.00
C3       0.76831    0.95616    0.78194   1.00
C3       0.73198    1.04123    0.72141   1.00
C3       0.73451    0.95886    0.71962   1.00
C2       0.75115    1.10512    0.74966   1.00
C2       0.74885    0.89488    0.75034   1.00
C3       0.77178    1.08462    0.77886   1.00
C3       0.76704    0.91519    0.78124   1.00
C3       0.73196    1.08258    0.72091   1.00
C3       0.73206    0.91762    0.72029   1.00
H1       0.78869    1.03115    0.80119   1.00
H1       0.78126    0.96852    0.80566   1.00
C5       0.71144    1.02020    0.69225   1.00
C5       0.71911    0.97980    0.68745   1.00
H1       0.78652    1.09955    0.80023   1.00
H1       0.77950    0.90010    0.80392   1.00
H1       0.71779    1.09680    0.69877   1.00
H1       0.71716    0.90368    0.69853   1.00
O3       0.68623    1.03961    0.66766   1.00
O3       0.70906    0.96099    0.65321   1.00
Si1      0.63994    1.04247    0.67862   1.00
Si1      0.74288    0.95279    0.62071   1.00
C6       0.62657    1.07538    0.64131   1.00
C6       0.61936    0.99598    0.67075   1.00
C6       0.63125    1.06253    0.72528   1.00
C6       0.79126    0.96693    0.63169   1.00
C6       0.74095    0.90198    0.61448   1.00
C6       0.72748    0.97477    0.57686   1.00
C6       0.65362    1.11194    0.63630   1.00
H2       0.63105    1.05791    0.61504   1.00
C6       0.58379    1.09147    0.63823   1.00
H2       0.63919    0.98358    0.64915   1.00
C6       0.61876    0.96634    0.70547   1.00
C6       0.57774    0.99336    0.65212   1.00
H2       0.65004    1.08831    0.72510   1.00
C6       0.58901    1.07772    0.73401   1.00
C6       0.64248    1.03849    0.76270   1.00
C6       0.79903    1.01071    0.64196   1.00
C6       0.81579    0.94225    0.66134   1.00
H2       0.80614    0.96212    0.60394   1.00
H2       0.75253    0.89051    0.64183   1.00
C6       0.69922    0.88378    0.61041   1.00
C6       0.76634    0.88393    0.58114   1.00
H2       0.70700    0.95375    0.56446   1.00
C6       0.70373    1.01336    0.58089   1.00
C6       0.75881    0.98244    0.54448   1.00
H2       0.68403    1.10346    0.63186   1.00
H2       0.65230    1.13090    0.66191   1.00
H2       0.64514    1.12917    0.61082   1.00
H2       0.57604    1.09608    0.60762   1.00
H2       0.56224    1.07178    0.65063   1.00
H2       0.58039    1.11964    0.65275   1.00
H2       0.61323    0.93672    0.69494   1.00
H2       0.64655    0.96532    0.72079   1.00
H2       0.59582    0.97352    0.72637   1.00
H2       0.57651    1.00862    0.62420   1.00
H2       0.56963    0.96308    0.64605   1.00
H2       0.55563    1.00550    0.67161   1.00
H2       0.56726    1.05514    0.72830   1.00
H2       0.58565    1.08708    0.76436   1.00
H2       0.58213    1.10332    0.71663   1.00
H2       0.61901    1.01902    0.77192   1.00
H2       0.66832    1.02068    0.75899   1.00
H2       0.64835    1.05828    0.78705   1.00
H2       0.79297    1.01688    0.67255   1.00
H2       0.82965    1.01809    0.63687   1.00
H2       0.78165    1.03048    0.62420   1.00
H2       0.84641    0.95125    0.66083   1.00
H2       0.80565    0.94574    0.69122   1.00
H2       0.81551    0.91122    0.65427   1.00
H2       0.70058    0.85202    0.61339   1.00
H2       0.67963    0.89435    0.63324   1.00
H2       0.68604    0.89035    0.58218   1.00
H2       0.79646    0.89416    0.58240   1.00
H2       0.76721    0.85212    0.58379   1.00
H2       0.75444    0.89085    0.55239   1.00
H2       0.72073    1.03656    0.59447   1.00
H2       0.69337    1.02381    0.55261   1.00
H2       0.67811    1.00834    0.59883   1.00
H2       0.74487    0.99044    0.51690   1.00
H2       0.77842    1.00622    0.55264   1.00
H2       0.77638    0.95657    0.53870   1.00
C4       0.47916    0.75116    0.74719   1.00
C4       0.52088    0.75145    0.74785   1.00
C3       0.45636    0.77943    0.72724   1.00
C3       0.54384    0.78194    0.73169   1.00
C3       0.45877    0.72141    0.76802   1.00
C3       0.54114    0.71962    0.76549   1.00
C2       0.39488    0.74966    0.74885   1.00
C2       0.60512    0.75034    0.75115   1.00
C3       0.41538    0.77886    0.72822   1.00
C3       0.58481    0.78124    0.73296   1.00
C3       0.41742    0.72091    0.76804   1.00
C3       0.58238    0.72029    0.76794   1.00
H1       0.46885    0.80119    0.71131   1.00
H1       0.53148    0.80566    0.71874   1.00
C5       0.47980    0.69225    0.78856   1.00
C5       0.52020    0.68745    0.78089   1.00
H1       0.40045    0.80023    0.71348   1.00
H1       0.59990    0.80392    0.72050   1.00
H1       0.40320    0.69877    0.78221   1.00
H1       0.59632    0.69853    0.78284   1.00
O3       0.46039    0.66766    0.81377   1.00
O3       0.53901    0.65321    0.79094   1.00
Si1      0.45753    0.67862    0.86006   1.00
Si1      0.54721    0.62071    0.75712   1.00
C6       0.42462    0.64131    0.87343   1.00
C6       0.50402    0.67075    0.88064   1.00
C6       0.43747    0.72528    0.86875   1.00
C6       0.53307    0.63169    0.70874   1.00
C6       0.59802    0.61448    0.75905   1.00
C6       0.52523    0.57686    0.77252   1.00
C6       0.38806    0.63630    0.84638   1.00
H2       0.44209    0.61504    0.86895   1.00
C6       0.40853    0.63823    0.91621   1.00
H2       0.51642    0.64915    0.86081   1.00
C6       0.53366    0.70547    0.88124   1.00
C6       0.50664    0.65212    0.92226   1.00
H2       0.41169    0.72510    0.84996   1.00
C6       0.42228    0.73401    0.91099   1.00
C6       0.46151    0.76270    0.85752   1.00
C6       0.48929    0.64196    0.70097   1.00
C6       0.55775    0.66134    0.68421   1.00
H2       0.53788    0.60394    0.69386   1.00
H2       0.60949    0.64183    0.74747   1.00
C6       0.61622    0.61041    0.80078   1.00
C6       0.61607    0.58114    0.73366   1.00
H2       0.54625    0.56446    0.79300   1.00
C6       0.48664    0.58089    0.79627   1.00
C6       0.51756    0.54448    0.74119   1.00
H2       0.39654    0.63186    0.81597   1.00
H2       0.36910    0.66191    0.84770   1.00
H2       0.37083    0.61082    0.85486   1.00
H2       0.40392    0.60762    0.92396   1.00
H2       0.42822    0.65063    0.93776   1.00
H2       0.38036    0.65275    0.91961   1.00
H2       0.56328    0.69494    0.88677   1.00
H2       0.53468    0.72079    0.85345   1.00
H2       0.52648    0.72637    0.90418   1.00
H2       0.49138    0.62420    0.92349   1.00
H2       0.53692    0.64605    0.93037   1.00
H2       0.49450    0.67161    0.94437   1.00
H2       0.44486    0.72830    0.93274   1.00
H2       0.41292    0.76436    0.91435   1.00
H2       0.39668    0.71663    0.91787   1.00
H2       0.48098    0.77192    0.88099   1.00
H2       0.47932    0.75899    0.83168   1.00
H2       0.44172    0.78705    0.85165   1.00
H2       0.48312    0.67255    0.70703   1.00
H2       0.48191    0.63687    0.67035   1.00
H2       0.46952    0.62420    0.71835   1.00
H2       0.54875    0.66083    0.65359   1.00
H2       0.55426    0.69122    0.69435   1.00
H2       0.58878    0.65427    0.68449   1.00
H2       0.64798    0.61339    0.79942   1.00
H2       0.60565    0.63324    0.82037   1.00
H2       0.60965    0.58218    0.81396   1.00
H2       0.60584    0.58240    0.70354   1.00
H2       0.64788    0.58379    0.73279   1.00
H2       0.60915    0.55239    0.74556   1.00
H2       0.46344    0.59447    0.77927   1.00
H2       0.47619    0.55261    0.80663   1.00
H2       0.49166    0.59883    0.82189   1.00
H2       0.50956    0.51690    0.75513   1.00
H2       0.49378    0.55264    0.72158   1.00
H2       0.54343    0.53870    0.72362   1.00
C4       1.02084    0.75116    0.75281   1.00
C4       0.97912    0.75145    0.75215   1.00
C3       1.04364    0.77943    0.77276   1.00
C3       0.95616    0.78194    0.76831   1.00
C3       1.04123    0.72141    0.73198   1.00
C3       0.95886    0.71962    0.73451   1.00
C2       1.10512    0.74966    0.75115   1.00
C2       0.89488    0.75034    0.74885   1.00
C3       1.08462    0.77886    0.77178   1.00
C3       0.91519    0.78124    0.76704   1.00
C3       1.08258    0.72091    0.73196   1.00
C3       0.91762    0.72029    0.73206   1.00
H1       1.03115    0.80119    0.78869   1.00
H1       0.96852    0.80566    0.78126   1.00
C5       1.02020    0.69225    0.71144   1.00
C5       0.97980    0.68745    0.71911   1.00
H1       1.09955    0.80023    0.78652   1.00
H1       0.90010    0.80392    0.77950   1.00
H1       1.09680    0.69877    0.71779   1.00
H1       0.90368    0.69853    0.71716   1.00
O3       1.03961    0.66766    0.68623   1.00
O3       0.96099    0.65321    0.70906   1.00
Si1      1.04247    0.67862    0.63994   1.00
Si1      0.95279    0.62071    0.74288   1.00
C6       1.07538    0.64131    0.62657   1.00
C6       0.99598    0.67075    0.61936   1.00
C6       1.06253    0.72528    0.63125   1.00
C6       0.96693    0.63169    0.79126   1.00
C6       0.90198    0.61448    0.74095   1.00
C6       0.97477    0.57686    0.72748   1.00
C6       1.11194    0.63630    0.65362   1.00
H2       1.05791    0.61504    0.63105   1.00
C6       1.09147    0.63823    0.58379   1.00
H2       0.98358    0.64915    0.63919   1.00
C6       0.96634    0.70547    0.61876   1.00
C6       0.99336    0.65212    0.57774   1.00
H2       1.08831    0.72510    0.65004   1.00
C6       1.07772    0.73401    0.58901   1.00
C6       1.03849    0.76270    0.64248   1.00
C6       1.01071    0.64196    0.79903   1.00
C6       0.94225    0.66134    0.81579   1.00
H2       0.96212    0.60394    0.80614   1.00
H2       0.89051    0.64183    0.75253   1.00
C6       0.88378    0.61041    0.69922   1.00
C6       0.88393    0.58114    0.76634   1.00
H2       0.95375    0.56446    0.70700   1.00
C6       1.01336    0.58089    0.70373   1.00
C6       0.98244    0.54448    0.75881   1.00
H2       1.10346    0.63186    0.68403   1.00
H2       1.13090    0.66191    0.65230   1.00
H2       1.12917    0.61082    0.64514   1.00
H2       1.09608    0.60762    0.57604   1.00
H2       1.07178    0.65063    0.56224   1.00
H2       1.11964    0.65275    0.58039   1.00
H2       0.93672    0.69494    0.61323   1.00
H2       0.96532    0.72079    0.64655   1.00
H2       0.97352    0.72637    0.59582   1.00
H2       1.00862    0.62420    0.57651   1.00
H2       0.96308    0.64605    0.56963   1.00
H2       1.00550    0.67161    0.55563   1.00
H2       1.05514    0.72830    0.56726   1.00
H2       1.08708    0.76436    0.58565   1.00
H2       1.10332    0.71663    0.58213   1.00
H2       1.01902    0.77192    0.61901   1.00
H2       1.02068    0.75899    0.66832   1.00
H2       1.05828    0.78705    0.64835   1.00
H2       1.01688    0.67255    0.79297   1.00
H2       1.01809    0.63687    0.82965   1.00
H2       1.03048    0.62420    0.78165   1.00
H2       0.95125    0.66083    0.84641   1.00
H2       0.94574    0.69122    0.80565   1.00
H2       0.91122    0.65427    0.81551   1.00
H2       0.85202    0.61339    0.70058   1.00
H2       0.89435    0.63324    0.67963   1.00
H2       0.89035    0.58218    0.68604   1.00
H2       0.89416    0.58240    0.79646   1.00
H2       0.85212    0.58379    0.76721   1.00
H2       0.89085    0.55239    0.75444   1.00
H2       1.03656    0.59447    0.72073   1.00
H2       1.02381    0.55261    0.69337   1.00
H2       1.00834    0.59883    0.67811   1.00
H2       0.99044    0.51690    0.74487   1.00
H2       1.00622    0.55264    0.77842   1.00
H2       0.95657    0.53870    0.77638   1.00
C4       0.74719    0.47916    0.75116   1.00
C4       0.74785    0.52088    0.75145   1.00
C3       0.72724    0.45636    0.77943   1.00
C3       0.73169    0.54384    0.78194   1.00
C3       0.76802    0.45877    0.72141   1.00
C3       0.76549    0.54114    0.71962   1.00
C2       0.74885    0.39488    0.74966   1.00
C2       0.75115    0.60512    0.75034   1.00
C3       0.72822    0.41538    0.77886   1.00
C3       0.73296    0.58481    0.78124   1.00
C3       0.76804    0.41742    0.72091   1.00
C3       0.76794    0.58238    0.72029   1.00
H1       0.71131    0.46885    0.80119   1.00
H1       0.71874    0.53148    0.80566   1.00
C5       0.78856    0.47980    0.69225   1.00
C5       0.78089    0.52020    0.68745   1.00
H1       0.71348    0.40045    0.80023   1.00
H1       0.72050    0.59990    0.80392   1.00
H1       0.78221    0.40320    0.69877   1.00
H1       0.78284    0.59632    0.69853   1.00
O3       0.81377    0.46039    0.66766   1.00
O3       0.79094    0.53901    0.65321   1.00
Si1      0.86006    0.45753    0.67862   1.00
Si1      0.75712    0.54721    0.62071   1.00
C6       0.87343    0.42462    0.64131   1.00
C6       0.88064    0.50402    0.67075   1.00
C6       0.86875    0.43747    0.72528   1.00
C6       0.70874    0.53307    0.63169   1.00
C6       0.75905    0.59802    0.61448   1.00
C6       0.77252    0.52523    0.57686   1.00
C6       0.84638    0.38806    0.63630   1.00
H2       0.86895    0.44209    0.61504   1.00
C6       0.91621    0.40853    0.63823   1.00
H2       0.86081    0.51642    0.64915   1.00
C6       0.88124    0.53366    0.70547   1.00
C6       0.92226    0.50664    0.65212   1.00
H2       0.84996    0.41169    0.72510   1.00
C6       0.91099    0.42228    0.73401   1.00
C6       0.85752    0.46151    0.76270   1.00
C6       0.70097    0.48929    0.64196   1.00
C6       0.68421    0.55775    0.66134   1.00
H2       0.69386    0.53788    0.60394   1.00
H2       0.74747    0.60949    0.64183   1.00
C6       0.80078    0.61622    0.61041   1.00
C6       0.73366    0.61607    0.58114   1.00
H2       0.79300    0.54625    0.56446   1.00
C6       0.79627    0.48664    0.58089   1.00
C6       0.74119    0.51756    0.54448   1.00
H2       0.81597    0.39654    0.63186   1.00
H2       0.84770    0.36910    0.66191   1.00
H2       0.85486    0.37083    0.61082   1.00
H2       0.92396    0.40392    0.60762   1.00
H2       0.93776    0.42822    0.65063   1.00
H2       0.91961    0.38036    0.65275   1.00
H2       0.88677    0.56328    0.69494   1.00
H2       0.85345    0.53468    0.72079   1.00
H2       0.90418    0.52648    0.72637   1.00
H2       0.92349    0.49138    0.62420   1.00
H2       0.93037    0.53692    0.64605   1.00
H2       0.94437    0.49450    0.67161   1.00
H2       0.93274    0.44486    0.72830   1.00
H2       0.91435    0.41292    0.76436   1.00
H2       0.91787    0.39668    0.71663   1.00
H2       0.88099    0.48098    0.77192   1.00
H2       0.83168    0.47932    0.75899   1.00
H2       0.85165    0.44172    0.78705   1.00
H2       0.70703    0.48312    0.67255   1.00
H2       0.67035    0.48191    0.63687   1.00
H2       0.71835    0.46952    0.62420   1.00
H2       0.65359    0.54875    0.66083   1.00
H2       0.69435    0.55426    0.69122   1.00
H2       0.68449    0.58878    0.65427   1.00
H2       0.79942    0.64798    0.61339   1.00
H2       0.82037    0.60565    0.63324   1.00
H2       0.81396    0.60965    0.58218   1.00
H2       0.70354    0.60584    0.58240   1.00
H2       0.73279    0.64788    0.58379   1.00
H2       0.74556    0.60915    0.55239   1.00
H2       0.77927    0.46344    0.59447   1.00
H2       0.80663    0.47619    0.55261   1.00
H2       0.82189    0.49166    0.59883   1.00
H2       0.75513    0.50956    0.51690   1.00
H2       0.72158    0.49378    0.55264   1.00
H2       0.72362    0.54343    0.53870   1.00
C4       0.75116    0.74719    0.47916   1.00
C4       0.75145    0.74785    0.52088   1.00
C3       0.77943    0.72724    0.45636   1.00
C3       0.78194    0.73169    0.54384   1.00
C3       0.72141    0.76802    0.45877   1.00
C3       0.71962    0.76549    0.54114   1.00
C2       0.74966    0.74885    0.39488   1.00
C2       0.75034    0.75115    0.60512   1.00
C3       0.77886    0.72822    0.41538   1.00
C3       0.78124    0.73296    0.58481   1.00
C3       0.72091    0.76804    0.41742   1.00
C3       0.72029    0.76794    0.58238   1.00
H1       0.80119    0.71131    0.46885   1.00
H1       0.80566    0.71874    0.53148   1.00
C5       0.69225    0.78856    0.47980   1.00
C5       0.68745    0.78089    0.52020   1.00
H1       0.80023    0.71348    0.40045   1.00
H1       0.80392    0.72050    0.59990   1.00
H1       0.69877    0.78221    0.40320   1.00
H1       0.69853    0.78284    0.59632   1.00
O3       0.66766    0.81377    0.46039   1.00
O3       0.65321    0.79094    0.53901   1.00
Si1      0.67862    0.86006    0.45753   1.00
Si1      0.62071    0.75712    0.54721   1.00
C6       0.64131    0.87343    0.42462   1.00
C6       0.67075    0.88064    0.50402   1.00
C6       0.72528    0.86875    0.43747   1.00
C6       0.63169    0.70874    0.53307   1.00
C6       0.61448    0.75905    0.59802   1.00
C6       0.57686    0.77252    0.52523   1.00
C6       0.63630    0.84638    0.38806   1.00
H2       0.61504    0.86895    0.44209   1.00
C6       0.63823    0.91621    0.40853   1.00
H2       0.64915    0.86081    0.51642   1.00
C6       0.70547    0.88124    0.53366   1.00
C6       0.65212    0.92226    0.50664   1.00
H2       0.72510    0.84996    0.41169   1.00
C6       0.73401    0.91099    0.42228   1.00
C6       0.76270    0.85752    0.46151   1.00
C6       0.64196    0.70097    0.48929   1.00
C6       0.66134    0.68421    0.55775   1.00
H2       0.60394    0.69386    0.53788   1.00
H2       0.64183    0.74747    0.60949   1.00
C6       0.61041    0.80078    0.61622   1.00
C6       0.58114    0.73366    0.61607   1.00
H2       0.56446    0.79300    0.54625   1.00
C6       0.58089    0.79627    0.48664   1.00
C6       0.54448    0.74119    0.51756   1.00
H2       0.63186    0.81597    0.39654   1.00
H2       0.66191    0.84770    0.36910   1.00
H2       0.61082    0.85486    0.37083   1.00
H2       0.60762    0.92396    0.40392   1.00
H2       0.65063    0.93776    0.42822   1.00
H2       0.65275    0.91961    0.38036   1.00
H2       0.69494    0.88677    0.56328   1.00
H2       0.72079    0.85345    0.53468   1.00
H2       0.72637    0.90418    0.52648   1.00
H2       0.62420    0.92349    0.49138   1.00
H2       0.64605    0.93037    0.53692   1.00
H2       0.67161    0.94437    0.49450   1.00
H2       0.72830    0.93274    0.44486   1.00
H2       0.76436    0.91435    0.41292   1.00
H2       0.71663    0.91787    0.39668   1.00
H2       0.77192    0.88099    0.48098   1.00
H2       0.75899    0.83168    0.47932   1.00
H2       0.78705    0.85165    0.44172   1.00
H2       0.67255    0.70703    0.48312   1.00
H2       0.63687    0.67035    0.48191   1.00
H2       0.62420    0.71835    0.46952   1.00
H2       0.66083    0.65359    0.54875   1.00
H2       0.69122    0.69435    0.55426   1.00
H2       0.65427    0.68449    0.58878   1.00
H2       0.61339    0.79942    0.64798   1.00
H2       0.63324    0.82037    0.60565   1.00
H2       0.58218    0.81396    0.60965   1.00
H2       0.58240    0.70354    0.60584   1.00
H2       0.58379    0.73279    0.64788   1.00
H2       0.55239    0.74556    0.60915   1.00
H2       0.59447    0.77927    0.46344   1.00
H2       0.55261    0.80663    0.47619   1.00
H2       0.59883    0.82189    0.49166   1.00
H2       0.51690    0.75513    0.50956   1.00
H2       0.55264    0.72158    0.49378   1.00
H2       0.53870    0.72362    0.54343   1.00
C4       0.25116    0.25281    1.02084   1.00
C4       0.25145    0.25215    0.97912   1.00
C3       0.27943    0.27276    1.04364   1.00
C3       0.28194    0.26831    0.95616   1.00
C3       0.22141    0.23198    1.04123   1.00
C3       0.21962    0.23451    0.95886   1.00
C2       0.24966    0.25115    1.10512   1.00
C2       0.25034    0.24885    0.89488   1.00
C3       0.27886    0.27178    1.08462   1.00
C3       0.28124    0.26704    0.91519   1.00
C3       0.22091    0.23196    1.08258   1.00
C3       0.22029    0.23206    0.91762   1.00
H1       0.30119    0.28869    1.03115   1.00
H1       0.30566    0.28126    0.96852   1.00
C5       0.19225    0.21144    1.02020   1.00
C5       0.18745    0.21911    0.97980   1.00
H1       0.30023    0.28652    1.09955   1.00
H1       0.30392    0.27950    0.90010   1.00
H1       0.19877    0.21779    1.09680   1.00
H1       0.19853    0.21716    0.90368   1.00
O3       0.16766    0.18623    1.03961   1.00
O3       0.15321    0.20906    0.96099   1.00
Si1      0.17862    0.13994    1.04247   1.00
Si1      0.12071    0.24288    0.95279   1.00
C6       0.14131    0.12657    1.07538   1.00
C6       0.17075    0.11936    0.99598   1.00
C6       0.22528    0.13125    1.06253   1.00
C6       0.13169    0.29126    0.96693   1.00
C6       0.11448    0.24095    0.90198   1.00
C6       0.07686    0.22748    0.97477   1.00
C6       0.13630    0.15362    1.11194   1.00
H2       0.11504    0.13105    1.05791   1.00
C6       0.13823    0.08379    1.09147   1.00
H2       0.14915    0.13919    0.98358   1.00
C6       0.20547    0.11876    0.96634   1.00
C6       0.15212    0.07774    0.99336   1.00
H2       0.22510    0.15004    1.08831   1.00
C6       0.23401    0.08901    1.07772   1.00
C6       0.26270    0.14248    1.03849   1.00
C6       0.14196    0.29903    1.01071   1.00
C6       0.16134    0.31579    0.94225   1.00
H2       0.10394    0.30614    0.96212   1.00
H2       0.14183    0.25253    0.89051   1.00
C6       0.11041    0.19922    0.88378   1.00
C6       0.08114    0.26634    0.88393   1.00
H2       0.06446    0.20700    0.95375   1.00
C6       0.08089    0.20373    1.01336   1.00
C6       0.04448    0.25881    0.98244   1.00
H2       0.13186    0.18403    1.10346   1.00
H2       0.16191    0.15230    1.13090   1.00
H2       0.11082    0.14514    1.12917   1.00
H2       0.10762    0.07604    1.09608   1.00
H2       0.15063    0.06224    1.07178   1.00
H2       0.15275    0.08039    1.11964   1.00
H2       0.19494    0.11323    0.93672   1.00
H2       0.22079    0.14655    0.96532   1.00
H2       0.22637    0.09582    0.97352   1.00
H2       0.12420    0.07651    1.00862   1.00
H2       0.14605    0.06963    0.96308   1.00
H2       0.17161    0.05563    1.00550   1.00
H2       0.22830    0.06726    1.05514   1.00
H2       0.26436    0.08565    1.08708   1.00
H2       0.21663    0.08213    1.10332   1.00
H2       0.27192    0.11901    1.01902   1.00
H2       0.25899    0.16832    1.02068   1.00
H2       0.28705    0.14835    1.05828   1.00
H2       0.17255    0.29297    1.01688   1.00
H2       0.13687    0.32965    1.01809   1.00
H2       0.12420    0.28165    1.03048   1.00
H2       0.16083    0.34641    0.95125   1.00
H2       0.19122    0.30565    0.94574   1.00
H2       0.15427    0.31551    0.91122   1.00
H2       0.11339    0.20058    0.85202   1.00
H2       0.13324    0.17963    0.89435   1.00
H2       0.08218    0.18604    0.89035   1.00
H2       0.08240    0.29646    0.89416   1.00
H2       0.08379    0.26721    0.85212   1.00
H2       0.05239    0.25444    0.89085   1.00
H2       0.09447    0.22073    1.03656   1.00
H2       0.05261    0.19337    1.02381   1.00
H2       0.09883    0.17811    1.00834   1.00
H2       0.01690    0.24487    0.99044   1.00
H2       0.05264    0.27842    1.00622   1.00
H2       0.03870    0.27638    0.95657   1.00
C4       0.25281    0.52084    0.75116   1.00
C4       0.25215    0.47912    0.75145   1.00
C3       0.27276    0.54364    0.77943   1.00
C3       0.26831    0.45616    0.78194   1.00
C3       0.23198    0.54123    0.72141   1.00
C3       0.23451    0.45886    0.71962   1.00
C2       0.25115    0.60512    0.74966   1.00
C2       0.24885    0.39488    0.75034   1.00
C3       0.27178    0.58462    0.77886   1.00
C3       0.26704    0.41519    0.78124   1.00
C3       0.23196    0.58258    0.72091   1.00
C3       0.23206    0.41762    0.72029   1.00
H1       0.28869    0.53115    0.80119   1.00
H1       0.28126    0.46852    0.80566   1.00
C5       0.21144    0.52020    0.69225   1.00
C5       0.21911    0.47980    0.68745   1.00
H1       0.28652    0.59955    0.80023   1.00
H1       0.27950    0.40010    0.80392   1.00
H1       0.21779    0.59680    0.69877   1.00
H1       0.21716    0.40368    0.69853   1.00
O3       0.18623    0.53961    0.66766   1.00
O3       0.20906    0.46099    0.65321   1.00
Si1      0.13994    0.54247    0.67862   1.00
Si1      0.24288    0.45279    0.62071   1.00
C6       0.12657    0.57538    0.64131   1.00
C6       0.11936    0.49598    0.67075   1.00
C6       0.13125    0.56253    0.72528   1.00
C6       0.29126    0.46693    0.63169   1.00
C6       0.24095    0.40198    0.61448   1.00
C6       0.22748    0.47477    0.57686   1.00
C6       0.15362    0.61194    0.63630   1.00
H2       0.13105    0.55791    0.61504   1.00
C6       0.08379    0.59147    0.63823   1.00
H2       0.13919    0.48358    0.64915   1.00
C6       0.11876    0.46634    0.70547   1.00
C6       0.07774    0.49336    0.65212   1.00
H2       0.15004    0.58831    0.72510   1.00
C6       0.08901    0.57772    0.73401   1.00
C6       0.14248    0.53849    0.76270   1.00
C6       0.29903    0.51071    0.64196   1.00
C6       0.31579    0.44225    0.66134   1.00
H2       0.30614    0.46212    0.60394   1.00
H2       0.25253    0.39051    0.64183   1.00
C6       0.19922    0.38378    0.61041   1.00
C6       0.26634    0.38393    0.58114   1.00
H2       0.20700    0.45375    0.56446   1.00
C6       0.20373    0.51336    0.58089   1.00
C6       0.25881    0.48244    0.54448   1.00
H2       0.18403    0.60346    0.63186   1.00
H2       0.15230    0.63090    0.66191   1.00
H2       0.14514    0.62917    0.61082   1.00
H2       0.07604    0.59608    0.60762   1.00
H2       0.06224    0.57178    0.65063   1.00
H2       0.08039    0.61964    0.65275   1.00
H2       0.11323    0.43672    0.69494   1.00
H2       0.14655    0.46532    0.72079   1.00
H2       0.09582    0.47352    0.72637   1.00
H2       0.07651    0.50862    0.62420   1.00
H2       0.06963    0.46308    0.64605   1.00
H2       0.05563    0.50550    0.67161   1.00
H2       0.06726    0.55514    0.72830   1.00
H2       0.08565    0.58708    0.76436   1.00
H2       0.08213    0.60332    0.71663   1.00
H2       0.11901    0.51902    0.77192   1.00
H2       0.16832    0.52068    0.75899   1.00
H2       0.14835    0.55828    0.78705   1.00
H2       0.29297    0.51688    0.67255   1.00
H2       0.32965    0.51809    0.63687   1.00
H2       0.28165    0.53048    0.62420   1.00
H2       0.34641    0.45125    0.66083   1.00
H2       0.30565    0.44574    0.69122   1.00
H2       0.31551    0.41122    0.65427   1.00
H2       0.20058    0.35202    0.61339   1.00
H2       0.17963    0.39435    0.63324   1.00
H2       0.18604    0.39035    0.58218   1.00
H2       0.29646    0.39416    0.58240   1.00
H2       0.26721    0.35212    0.58379   1.00
H2       0.25444    0.39085    0.55239   1.00
H2       0.22073    0.53656    0.59447   1.00
H2       0.19337    0.52381    0.55261   1.00
H2       0.17811    0.50834    0.59883   1.00
H2       0.24487    0.49044    0.51690   1.00
H2       0.27842    0.50622    0.55264   1.00
H2       0.27638    0.45657    0.53870   1.00
C4       -0.02084   0.25116    0.74719   1.00
C4       0.02088    0.25145    0.74785   1.00
C3       -0.04364   0.27943    0.72724   1.00
C3       0.04384    0.28194    0.73169   1.00
C3       -0.04123   0.22141    0.76802   1.00
C3       0.04114    0.21962    0.76549   1.00
C2       -0.10512   0.24966    0.74885   1.00
C2       0.10512    0.25034    0.75115   1.00
C3       -0.08462   0.27886    0.72822   1.00
C3       0.08481    0.28124    0.73296   1.00
C3       -0.08258   0.22091    0.76804   1.00
C3       0.08238    0.22029    0.76794   1.00
H1       -0.03115   0.30119    0.71131   1.00
H1       0.03148    0.30566    0.71874   1.00
C5       -0.02020   0.19225    0.78856   1.00
C5       0.02020    0.18745    0.78089   1.00
H1       -0.09955   0.30023    0.71348   1.00
H1       0.09990    0.30392    0.72050   1.00
H1       -0.09680   0.19877    0.78221   1.00
H1       0.09632    0.19853    0.78284   1.00
O3       -0.03961   0.16766    0.81377   1.00
O3       0.03901    0.15321    0.79094   1.00
Si1      -0.04247   0.17862    0.86006   1.00
Si1      0.04721    0.12071    0.75712   1.00
C6       -0.07538   0.14131    0.87343   1.00
C6       0.00402    0.17075    0.88064   1.00
C6       -0.06253   0.22528    0.86875   1.00
C6       0.03307    0.13169    0.70874   1.00
C6       0.09802    0.11448    0.75905   1.00
C6       0.02523    0.07686    0.77252   1.00
C6       -0.11194   0.13630    0.84638   1.00
H2       -0.05791   0.11504    0.86895   1.00
C6       -0.09147   0.13823    0.91621   1.00
H2       0.01642    0.14915    0.86081   1.00
C6       0.03366    0.20547    0.88124   1.00
C6       0.00664    0.15212    0.92226   1.00
H2       -0.08831   0.22510    0.84996   1.00
C6       -0.07772   0.23401    0.91099   1.00
C6       -0.03849   0.26270    0.85752   1.00
C6       -0.01071   0.14196    0.70097   1.00
C6       0.05775    0.16134    0.68421   1.00
H2       0.03788    0.10394    0.69386   1.00
H2       0.10949    0.14183    0.74747   1.00
C6       0.11622    0.11041    0.80078   1.00
C6       0.11607    0.08114    0.73366   1.00
H2       0.04625    0.06446    0.79300   1.00
C6       -0.01336   0.08089    0.79627   1.00
C6       0.01756    0.04448    0.74119   1.00
H2       -0.10346   0.13186    0.81597   1.00
H2       -0.13090   0.16191    0.84770   1.00
H2       -0.12917   0.11082    0.85486   1.00
H2       -0.09608   0.10762    0.92396   1.00
H2       -0.07178   0.15063    0.93776   1.00
H2       -0.11964   0.15275    0.91961   1.00
H2       0.06328    0.19494    0.88677   1.00
H2       0.03468    0.22079    0.85345   1.00
H2       0.02648    0.22637    0.90418   1.00
H2       -0.00862   0.12420    0.92349   1.00
H2       0.03692    0.14605    0.93037   1.00
H2       -0.00550   0.17161    0.94437   1.00
H2       -0.05514   0.22830    0.93274   1.00
H2       -0.08708   0.26436    0.91435   1.00
H2       -0.10332   0.21663    0.91787   1.00
H2       -0.01902   0.27192    0.88099   1.00
H2       -0.02068   0.25899    0.83168   1.00
H2       -0.05828   0.28705    0.85165   1.00
H2       -0.01688   0.17255    0.70703   1.00
H2       -0.01809   0.13687    0.67035   1.00
H2       -0.03048   0.12420    0.71835   1.00
H2       0.04875    0.16083    0.65359   1.00
H2       0.05426    0.19122    0.69435   1.00
H2       0.08878    0.15427    0.68449   1.00
H2       0.14798    0.11339    0.79942   1.00
H2       0.10565    0.13324    0.82037   1.00
H2       0.10965    0.08218    0.81396   1.00
H2       0.10584    0.08240    0.70354   1.00
H2       0.14788    0.08379    0.73279   1.00
H2       0.10915    0.05239    0.74556   1.00
H2       -0.03656   0.09447    0.77927   1.00
H2       -0.02381   0.05261    0.80663   1.00
H2       -0.00834   0.09883    0.82189   1.00
H2       0.00956    0.01690    0.75513   1.00
H2       -0.00622   0.05264    0.72158   1.00
H2       0.04343    0.03870    0.72362   1.00
C4       0.52084    0.25116    0.75281   1.00
C4       0.47912    0.25145    0.75215   1.00
C3       0.54364    0.27943    0.77276   1.00
C3       0.45616    0.28194    0.76831   1.00
C3       0.54123    0.22141    0.73198   1.00
C3       0.45886    0.21962    0.73451   1.00
C2       0.60512    0.24966    0.75115   1.00
C2       0.39488    0.25034    0.74885   1.00
C3       0.58462    0.27886    0.77178   1.00
C3       0.41519    0.28124    0.76704   1.00
C3       0.58258    0.22091    0.73196   1.00
C3       0.41762    0.22029    0.73206   1.00
H1       0.53115    0.30119    0.78869   1.00
H1       0.46852    0.30566    0.78126   1.00
C5       0.52020    0.19225    0.71144   1.00
C5       0.47980    0.18745    0.71911   1.00
H1       0.59955    0.30023    0.78652   1.00
H1       0.40010    0.30392    0.77950   1.00
H1       0.59680    0.19877    0.71779   1.00
H1       0.40368    0.19853    0.71716   1.00
O3       0.53961    0.16766    0.68623   1.00
O3       0.46099    0.15321    0.70906   1.00
Si1      0.54247    0.17862    0.63994   1.00
Si1      0.45279    0.12071    0.74288   1.00
C6       0.57538    0.14131    0.62657   1.00
C6       0.49598    0.17075    0.61936   1.00
C6       0.56253    0.22528    0.63125   1.00
C6       0.46693    0.13169    0.79126   1.00
C6       0.40198    0.11448    0.74095   1.00
C6       0.47477    0.07686    0.72748   1.00
C6       0.61194    0.13630    0.65362   1.00
H2       0.55791    0.11504    0.63105   1.00
C6       0.59147    0.13823    0.58379   1.00
H2       0.48358    0.14915    0.63919   1.00
C6       0.46634    0.20547    0.61876   1.00
C6       0.49336    0.15212    0.57774   1.00
H2       0.58831    0.22510    0.65004   1.00
C6       0.57772    0.23401    0.58901   1.00
C6       0.53849    0.26270    0.64248   1.00
C6       0.51071    0.14196    0.79903   1.00
C6       0.44225    0.16134    0.81579   1.00
H2       0.46212    0.10394    0.80614   1.00
H2       0.39051    0.14183    0.75253   1.00
C6       0.38378    0.11041    0.69922   1.00
C6       0.38393    0.08114    0.76634   1.00
H2       0.45375    0.06446    0.70700   1.00
C6       0.51336    0.08089    0.70373   1.00
C6       0.48244    0.04448    0.75881   1.00
H2       0.60346    0.13186    0.68403   1.00
H2       0.63090    0.16191    0.65230   1.00
H2       0.62917    0.11082    0.64514   1.00
H2       0.59608    0.10762    0.57604   1.00
H2       0.57178    0.15063    0.56224   1.00
H2       0.61964    0.15275    0.58039   1.00
H2       0.43672    0.19494    0.61323   1.00
H2       0.46532    0.22079    0.64655   1.00
H2       0.47352    0.22637    0.59582   1.00
H2       0.50862    0.12420    0.57651   1.00
H2       0.46308    0.14605    0.56963   1.00
H2       0.50550    0.17161    0.55563   1.00
H2       0.55514    0.22830    0.56726   1.00
H2       0.58708    0.26436    0.58565   1.00
H2       0.60332    0.21663    0.58213   1.00
H2       0.51902    0.27192    0.61901   1.00
H2       0.52068    0.25899    0.66832   1.00
H2       0.55828    0.28705    0.64835   1.00
H2       0.51688    0.17255    0.79297   1.00
H2       0.51809    0.13687    0.82965   1.00
H2       0.53048    0.12420    0.78165   1.00
H2       0.45125    0.16083    0.84641   1.00
H2       0.44574    0.19122    0.80565   1.00
H2       0.41122    0.15427    0.81551   1.00
H2       0.35202    0.11339    0.70058   1.00
H2       0.39435    0.13324    0.67963   1.00
H2       0.39035    0.08218    0.68604   1.00
H2       0.39416    0.08240    0.79646   1.00
H2       0.35212    0.08379    0.76721   1.00
H2       0.39085    0.05239    0.75444   1.00
H2       0.53656    0.09447    0.72073   1.00
H2       0.52381    0.05261    0.69337   1.00
H2       0.50834    0.09883    0.67811   1.00
H2       0.49044    0.01690    0.74487   1.00
H2       0.50622    0.05264    0.77842   1.00
H2       0.45657    0.03870    0.77638   1.00
C4       0.24719    -0.02084   0.75116   1.00
C4       0.24785    0.02088    0.75145   1.00
C3       0.22724    -0.04364   0.77943   1.00
C3       0.23169    0.04384    0.78194   1.00
C3       0.26802    -0.04123   0.72141   1.00
C3       0.26549    0.04114    0.71962   1.00
C2       0.24885    -0.10512   0.74966   1.00
C2       0.25115    0.10512    0.75034   1.00
C3       0.22822    -0.08462   0.77886   1.00
C3       0.23296    0.08481    0.78124   1.00
C3       0.26804    -0.08258   0.72091   1.00
C3       0.26794    0.08238    0.72029   1.00
H1       0.21131    -0.03115   0.80119   1.00
H1       0.21874    0.03148    0.80566   1.00
C5       0.28856    -0.02020   0.69225   1.00
C5       0.28089    0.02020    0.68745   1.00
H1       0.21348    -0.09955   0.80023   1.00
H1       0.22050    0.09990    0.80392   1.00
H1       0.28221    -0.09680   0.69877   1.00
H1       0.28284    0.09632    0.69853   1.00
O3       0.31377    -0.03961   0.66766   1.00
O3       0.29094    0.03901    0.65321   1.00
Si1      0.36006    -0.04247   0.67862   1.00
Si1      0.25712    0.04721    0.62071   1.00
C6       0.37343    -0.07538   0.64131   1.00
C6       0.38064    0.00402    0.67075   1.00
C6       0.36875    -0.06253   0.72528   1.00
C6       0.20874    0.03307    0.63169   1.00
C6       0.25905    0.09802    0.61448   1.00
C6       0.27252    0.02523    0.57686   1.00
C6       0.34638    -0.11194   0.63630   1.00
H2       0.36895    -0.05791   0.61504   1.00
C6       0.41621    -0.09147   0.63823   1.00
H2       0.36081    0.01642    0.64915   1.00
C6       0.38124    0.03366    0.70547   1.00
C6       0.42226    0.00664    0.65212   1.00
H2       0.34996    -0.08831   0.72510   1.00
C6       0.41099    -0.07772   0.73401   1.00
C6       0.35752    -0.03849   0.76270   1.00
C6       0.20097    -0.01071   0.64196   1.00
C6       0.18421    0.05775    0.66134   1.00
H2       0.19386    0.03788    0.60394   1.00
H2       0.24747    0.10949    0.64183   1.00
C6       0.30078    0.11622    0.61041   1.00
C6       0.23366    0.11607    0.58114   1.00
H2       0.29300    0.04625    0.56446   1.00
C6       0.29627    -0.01336   0.58089   1.00
C6       0.24119    0.01756    0.54448   1.00
H2       0.31597    -0.10346   0.63186   1.00
H2       0.34770    -0.13090   0.66191   1.00
H2       0.35486    -0.12917   0.61082   1.00
H2       0.42396    -0.09608   0.60762   1.00
H2       0.43776    -0.07178   0.65063   1.00
H2       0.41961    -0.11964   0.65275   1.00
H2       0.38677    0.06328    0.69494   1.00
H2       0.35345    0.03468    0.72079   1.00
H2       0.40418    0.02648    0.72637   1.00
H2       0.42349    -0.00862   0.62420   1.00
H2       0.43037    0.03692    0.64605   1.00
H2       0.44437    -0.00550   0.67161   1.00
H2       0.43274    -0.05514   0.72830   1.00
H2       0.41435    -0.08708   0.76436   1.00
H2       0.41787    -0.10332   0.71663   1.00
H2       0.38099    -0.01902   0.77192   1.00
H2       0.33168    -0.02068   0.75899   1.00
H2       0.35165    -0.05828   0.78705   1.00
H2       0.20703    -0.01688   0.67255   1.00
H2       0.17035    -0.01809   0.63687   1.00
H2       0.21835    -0.03048   0.62420   1.00
H2       0.15359    0.04875    0.66083   1.00
H2       0.19435    0.05426    0.69122   1.00
H2       0.18449    0.08878    0.65427   1.00
H2       0.29942    0.14798    0.61339   1.00
H2       0.32037    0.10565    0.63324   1.00
H2       0.31396    0.10965    0.58218   1.00
H2       0.20354    0.10584    0.58240   1.00
H2       0.23279    0.14788    0.58379   1.00
H2       0.24556    0.10915    0.55239   1.00
H2       0.27927    -0.03656   0.59447   1.00
H2       0.30663    -0.02381   0.55261   1.00
H2       0.32189    -0.00834   0.59883   1.00
H2       0.25513    0.00956    0.51690   1.00
H2       0.22158    -0.00622   0.55264   1.00
H2       0.22362    0.04343    0.53870   1.00
C4       0.25116    0.24719    0.47916   1.00
C4       0.25145    0.24785    0.52088   1.00
C3       0.27943    0.22724    0.45636   1.00
C3       0.28194    0.23169    0.54384   1.00
C3       0.22141    0.26802    0.45877   1.00
C3       0.21962    0.26549    0.54114   1.00
C2       0.24966    0.24885    0.39488   1.00
C2       0.25034    0.25115    0.60512   1.00
C3       0.27886    0.22822    0.41538   1.00
C3       0.28124    0.23296    0.58481   1.00
C3       0.22091    0.26804    0.41742   1.00
C3       0.22029    0.26794    0.58238   1.00
H1       0.30119    0.21131    0.46885   1.00
H1       0.30566    0.21874    0.53148   1.00
C5       0.19225    0.28856    0.47980   1.00
C5       0.18745    0.28089    0.52020   1.00
H1       0.30023    0.21348    0.40045   1.00
H1       0.30392    0.22050    0.59990   1.00
H1       0.19877    0.28221    0.40320   1.00
H1       0.19853    0.28284    0.59632   1.00
O3       0.16766    0.31377    0.46039   1.00
O3       0.15321    0.29094    0.53901   1.00
Si1      0.17862    0.36006    0.45753   1.00
Si1      0.12071    0.25712    0.54721   1.00
C6       0.14131    0.37343    0.42462   1.00
C6       0.17075    0.38064    0.50402   1.00
C6       0.22528    0.36875    0.43747   1.00
C6       0.13169    0.20874    0.53307   1.00
C6       0.11448    0.25905    0.59802   1.00
C6       0.07686    0.27252    0.52523   1.00
C6       0.13630    0.34638    0.38806   1.00
H2       0.11504    0.36895    0.44209   1.00
C6       0.13823    0.41621    0.40853   1.00
H2       0.14915    0.36081    0.51642   1.00
C6       0.20547    0.38124    0.53366   1.00
C6       0.15212    0.42226    0.50664   1.00
H2       0.22510    0.34996    0.41169   1.00
C6       0.23401    0.41099    0.42228   1.00
C6       0.26270    0.35752    0.46151   1.00
C6       0.14196    0.20097    0.48929   1.00
C6       0.16134    0.18421    0.55775   1.00
H2       0.10394    0.19386    0.53788   1.00
H2       0.14183    0.24747    0.60949   1.00
C6       0.11041    0.30078    0.61622   1.00
C6       0.08114    0.23366    0.61607   1.00
H2       0.06446    0.29300    0.54625   1.00
C6       0.08089    0.29627    0.48664   1.00
C6       0.04448    0.24119    0.51756   1.00
H2       0.13186    0.31597    0.39654   1.00
H2       0.16191    0.34770    0.36910   1.00
H2       0.11082    0.35486    0.37083   1.00
H2       0.10762    0.42396    0.40392   1.00
H2       0.15063    0.43776    0.42822   1.00
H2       0.15275    0.41961    0.38036   1.00
H2       0.19494    0.38677    0.56328   1.00
H2       0.22079    0.35345    0.53468   1.00
H2       0.22637    0.40418    0.52648   1.00
H2       0.12420    0.42349    0.49138   1.00
H2       0.14605    0.43037    0.53692   1.00
H2       0.17161    0.44437    0.49450   1.00
H2       0.22830    0.43274    0.44486   1.00
H2       0.26436    0.41435    0.41292   1.00
H2       0.21663    0.41787    0.39668   1.00
H2       0.27192    0.38099    0.48098   1.00
H2       0.25899    0.33168    0.47932   1.00
H2       0.28705    0.35165    0.44172   1.00
H2       0.17255    0.20703    0.48312   1.00
H2       0.13687    0.17035    0.48191   1.00
H2       0.12420    0.21835    0.46952   1.00
H2       0.16083    0.15359    0.54875   1.00
H2       0.19122    0.19435    0.55426   1.00
H2       0.15427    0.18449    0.58878   1.00
H2       0.11339    0.29942    0.64798   1.00
H2       0.13324    0.32037    0.60565   1.00
H2       0.08218    0.31396    0.60965   1.00
H2       0.08240    0.20354    0.60584   1.00
H2       0.08379    0.23279    0.64788   1.00
H2       0.05239    0.24556    0.60915   1.00
H2       0.09447    0.27927    0.46344   1.00
H2       0.05261    0.30663    0.47619   1.00
H2       0.09883    0.32189    0.49166   1.00
H2       0.01690    0.25513    0.50956   1.00
H2       0.05264    0.22158    0.49378   1.00
H2       0.03870    0.22362    0.54343   1.00
C4       0.25116    0.75281    0.52084   1.00
C4       0.25145    0.75215    0.47912   1.00
C3       0.27943    0.77276    0.54364   1.00
C3       0.28194    0.76831    0.45616   1.00
C3       0.22141    0.73198    0.54123   1.00
C3       0.21962    0.73451    0.45886   1.00
C2       0.24966    0.75115    0.60512   1.00
C2       0.25034    0.74885    0.39488   1.00
C3       0.27886    0.77178    0.58462   1.00
C3       0.28124    0.76704    0.41519   1.00
C3       0.22091    0.73196    0.58258   1.00
C3       0.22029    0.73206    0.41762   1.00
H1       0.30119    0.78869    0.53115   1.00
H1       0.30566    0.78126    0.46852   1.00
C5       0.19225    0.71144    0.52020   1.00
C5       0.18745    0.71911    0.47980   1.00
H1       0.30023    0.78652    0.59955   1.00
H1       0.30392    0.77950    0.40010   1.00
H1       0.19877    0.71779    0.59680   1.00
H1       0.19853    0.71716    0.40368   1.00
O3       0.16766    0.68623    0.53961   1.00
O3       0.15321    0.70906    0.46099   1.00
Si1      0.17862    0.63994    0.54247   1.00
Si1      0.12071    0.74288    0.45279   1.00
C6       0.14131    0.62657    0.57538   1.00
C6       0.17075    0.61936    0.49598   1.00
C6       0.22528    0.63125    0.56253   1.00
C6       0.13169    0.79126    0.46693   1.00
C6       0.11448    0.74095    0.40198   1.00
C6       0.07686    0.72748    0.47477   1.00
C6       0.13630    0.65362    0.61194   1.00
H2       0.11504    0.63105    0.55791   1.00
C6       0.13823    0.58379    0.59147   1.00
H2       0.14915    0.63919    0.48358   1.00
C6       0.20547    0.61876    0.46634   1.00
C6       0.15212    0.57774    0.49336   1.00
H2       0.22510    0.65004    0.58831   1.00
C6       0.23401    0.58901    0.57772   1.00
C6       0.26270    0.64248    0.53849   1.00
C6       0.14196    0.79903    0.51071   1.00
C6       0.16134    0.81579    0.44225   1.00
H2       0.10394    0.80614    0.46212   1.00
H2       0.14183    0.75253    0.39051   1.00
C6       0.11041    0.69922    0.38378   1.00
C6       0.08114    0.76634    0.38393   1.00
H2       0.06446    0.70700    0.45375   1.00
C6       0.08089    0.70373    0.51336   1.00
C6       0.04448    0.75881    0.48244   1.00
H2       0.13186    0.68403    0.60346   1.00
H2       0.16191    0.65230    0.63090   1.00
H2       0.11082    0.64514    0.62917   1.00
H2       0.10762    0.57604    0.59608   1.00
H2       0.15063    0.56224    0.57178   1.00
H2       0.15275    0.58039    0.61964   1.00
H2       0.19494    0.61323    0.43672   1.00
H2       0.22079    0.64655    0.46532   1.00
H2       0.22637    0.59582    0.47352   1.00
H2       0.12420    0.57651    0.50862   1.00
H2       0.14605    0.56963    0.46308   1.00
H2       0.17161    0.55563    0.50550   1.00
H2       0.22830    0.56726    0.55514   1.00
H2       0.26436    0.58565    0.58708   1.00
H2       0.21663    0.58213    0.60332   1.00
H2       0.27192    0.61901    0.51902   1.00
H2       0.25899    0.66832    0.52068   1.00
H2       0.28705    0.64835    0.55828   1.00
H2       0.17255    0.79297    0.51688   1.00
H2       0.13687    0.82965    0.51809   1.00
H2       0.12420    0.78165    0.53048   1.00
H2       0.16083    0.84641    0.45125   1.00
H2       0.19122    0.80565    0.44574   1.00
H2       0.15427    0.81551    0.41122   1.00
H2       0.11339    0.70058    0.35202   1.00
H2       0.13324    0.67963    0.39435   1.00
H2       0.08218    0.68604    0.39035   1.00
H2       0.08240    0.79646    0.39416   1.00
H2       0.08379    0.76721    0.35212   1.00
H2       0.05239    0.75444    0.39085   1.00
H2       0.09447    0.72073    0.53656   1.00
H2       0.05261    0.69337    0.52381   1.00
H2       0.09883    0.67811    0.50834   1.00
H2       0.01690    0.74487    0.49044   1.00
H2       0.05264    0.77842    0.50622   1.00
H2       0.03870    0.77638    0.45657   1.00
C4       0.25281    1.02084    0.25116   1.00
C4       0.25215    0.97912    0.25145   1.00
C3       0.27276    1.04364    0.27943   1.00
C3       0.26831    0.95616    0.28194   1.00
C3       0.23198    1.04123    0.22141   1.00
C3       0.23451    0.95886    0.21962   1.00
C2       0.25115    1.10512    0.24966   1.00
C2       0.24885    0.89488    0.25034   1.00
C3       0.27178    1.08462    0.27886   1.00
C3       0.26704    0.91519    0.28124   1.00
C3       0.23196    1.08258    0.22091   1.00
C3       0.23206    0.91762    0.22029   1.00
H1       0.28869    1.03115    0.30119   1.00
H1       0.28126    0.96852    0.30566   1.00
C5       0.21144    1.02020    0.19225   1.00
C5       0.21911    0.97980    0.18745   1.00
H1       0.28652    1.09955    0.30023   1.00
H1       0.27950    0.90010    0.30392   1.00
H1       0.21779    1.09680    0.19877   1.00
H1       0.21716    0.90368    0.19853   1.00
O3       0.18623    1.03961    0.16766   1.00
O3       0.20906    0.96099    0.15321   1.00
Si1      0.13994    1.04247    0.17862   1.00
Si1      0.24288    0.95279    0.12071   1.00
C6       0.12657    1.07538    0.14131   1.00
C6       0.11936    0.99598    0.17075   1.00
C6       0.13125    1.06253    0.22528   1.00
C6       0.29126    0.96693    0.13169   1.00
C6       0.24095    0.90198    0.11448   1.00
C6       0.22748    0.97477    0.07686   1.00
C6       0.15362    1.11194    0.13630   1.00
H2       0.13105    1.05791    0.11504   1.00
C6       0.08379    1.09147    0.13823   1.00
H2       0.13919    0.98358    0.14915   1.00
C6       0.11876    0.96634    0.20547   1.00
C6       0.07774    0.99336    0.15212   1.00
H2       0.15004    1.08831    0.22510   1.00
C6       0.08901    1.07772    0.23401   1.00
C6       0.14248    1.03849    0.26270   1.00
C6       0.29903    1.01071    0.14196   1.00
C6       0.31579    0.94225    0.16134   1.00
H2       0.30614    0.96212    0.10394   1.00
H2       0.25253    0.89051    0.14183   1.00
C6       0.19922    0.88378    0.11041   1.00
C6       0.26634    0.88393    0.08114   1.00
H2       0.20700    0.95375    0.06446   1.00
C6       0.20373    1.01336    0.08089   1.00
C6       0.25881    0.98244    0.04448   1.00
H2       0.18403    1.10346    0.13186   1.00
H2       0.15230    1.13090    0.16191   1.00
H2       0.14514    1.12917    0.11082   1.00
H2       0.07604    1.09608    0.10762   1.00
H2       0.06224    1.07178    0.15063   1.00
H2       0.08039    1.11964    0.15275   1.00
H2       0.11323    0.93672    0.19494   1.00
H2       0.14655    0.96532    0.22079   1.00
H2       0.09582    0.97352    0.22637   1.00
H2       0.07651    1.00862    0.12420   1.00
H2       0.06963    0.96308    0.14605   1.00
H2       0.05563    1.00550    0.17161   1.00
H2       0.06726    1.05514    0.22830   1.00
H2       0.08565    1.08708    0.26436   1.00
H2       0.08213    1.10332    0.21663   1.00
H2       0.11901    1.01902    0.27192   1.00
H2       0.16832    1.02068    0.25899   1.00
H2       0.14835    1.05828    0.28705   1.00
H2       0.29297    1.01688    0.17255   1.00
H2       0.32965    1.01809    0.13687   1.00
H2       0.28165    1.03048    0.12420   1.00
H2       0.34641    0.95125    0.16083   1.00
H2       0.30565    0.94574    0.19122   1.00
H2       0.31551    0.91122    0.15427   1.00
H2       0.20058    0.85202    0.11339   1.00
H2       0.17963    0.89435    0.13324   1.00
H2       0.18604    0.89035    0.08218   1.00
H2       0.29646    0.89416    0.08240   1.00
H2       0.26721    0.85212    0.08379   1.00
H2       0.25444    0.89085    0.05239   1.00
H2       0.22073    1.03656    0.09447   1.00
H2       0.19337    1.02381    0.05261   1.00
H2       0.17811    1.00834    0.09883   1.00
H2       0.24487    0.99044    0.01690   1.00
H2       0.27842    1.00622    0.05264   1.00
H2       0.27638    0.95657    0.03870   1.00
C4       -0.02084   0.75116    0.24719   1.00
C4       0.02088    0.75145    0.24785   1.00
C3       -0.04364   0.77943    0.22724   1.00
C3       0.04384    0.78194    0.23169   1.00
C3       -0.04123   0.72141    0.26802   1.00
C3       0.04114    0.71962    0.26549   1.00
C2       -0.10512   0.74966    0.24885   1.00
C2       0.10512    0.75034    0.25115   1.00
C3       -0.08462   0.77886    0.22822   1.00
C3       0.08481    0.78124    0.23296   1.00
C3       -0.08258   0.72091    0.26804   1.00
C3       0.08238    0.72029    0.26794   1.00
H1       -0.03115   0.80119    0.21131   1.00
H1       0.03148    0.80566    0.21874   1.00
C5       -0.02020   0.69225    0.28856   1.00
C5       0.02020    0.68745    0.28089   1.00
H1       -0.09955   0.80023    0.21348   1.00
H1       0.09990    0.80392    0.22050   1.00
H1       -0.09680   0.69877    0.28221   1.00
H1       0.09632    0.69853    0.28284   1.00
O3       -0.03961   0.66766    0.31377   1.00
O3       0.03901    0.65321    0.29094   1.00
Si1      -0.04247   0.67862    0.36006   1.00
Si1      0.04721    0.62071    0.25712   1.00
C6       -0.07538   0.64131    0.37343   1.00
C6       0.00402    0.67075    0.38064   1.00
C6       -0.06253   0.72528    0.36875   1.00
C6       0.03307    0.63169    0.20874   1.00
C6       0.09802    0.61448    0.25905   1.00
C6       0.02523    0.57686    0.27252   1.00
C6       -0.11194   0.63630    0.34638   1.00
H2       -0.05791   0.61504    0.36895   1.00
C6       -0.09147   0.63823    0.41621   1.00
H2       0.01642    0.64915    0.36081   1.00
C6       0.03366    0.70547    0.38124   1.00
C6       0.00664    0.65212    0.42226   1.00
H2       -0.08831   0.72510    0.34996   1.00
C6       -0.07772   0.73401    0.41099   1.00
C6       -0.03849   0.76270    0.35752   1.00
C6       -0.01071   0.64196    0.20097   1.00
C6       0.05775    0.66134    0.18421   1.00
H2       0.03788    0.60394    0.19386   1.00
H2       0.10949    0.64183    0.24747   1.00
C6       0.11622    0.61041    0.30078   1.00
C6       0.11607    0.58114    0.23366   1.00
H2       0.04625    0.56446    0.29300   1.00
C6       -0.01336   0.58089    0.29627   1.00
C6       0.01756    0.54448    0.24119   1.00
H2       -0.10346   0.63186    0.31597   1.00
H2       -0.13090   0.66191    0.34770   1.00
H2       -0.12917   0.61082    0.35486   1.00
H2       -0.09608   0.60762    0.42396   1.00
H2       -0.07178   0.65063    0.43776   1.00
H2       -0.11964   0.65275    0.41961   1.00
H2       0.06328    0.69494    0.38677   1.00
H2       0.03468    0.72079    0.35345   1.00
H2       0.02648    0.72637    0.40418   1.00
H2       -0.00862   0.62420    0.42349   1.00
H2       0.03692    0.64605    0.43037   1.00
H2       -0.00550   0.67161    0.44437   1.00
H2       -0.05514   0.72830    0.43274   1.00
H2       -0.08708   0.76436    0.41435   1.00
H2       -0.10332   0.71663    0.41787   1.00
H2       -0.01902   0.77192    0.38099   1.00
H2       -0.02068   0.75899    0.33168   1.00
H2       -0.05828   0.78705    0.35165   1.00
H2       -0.01688   0.67255    0.20703   1.00
H2       -0.01809   0.63687    0.17035   1.00
H2       -0.03048   0.62420    0.21835   1.00
H2       0.04875    0.66083    0.15359   1.00
H2       0.05426    0.69122    0.19435   1.00
H2       0.08878    0.65427    0.18449   1.00
H2       0.14798    0.61339    0.29942   1.00
H2       0.10565    0.63324    0.32037   1.00
H2       0.10965    0.58218    0.31396   1.00
H2       0.10584    0.58240    0.20354   1.00
H2       0.14788    0.58379    0.23279   1.00
H2       0.10915    0.55239    0.24556   1.00
H2       -0.03656   0.59447    0.27927   1.00
H2       -0.02381   0.55261    0.30663   1.00
H2       -0.00834   0.59883    0.32189   1.00
H2       0.00956    0.51690    0.25513   1.00
H2       -0.00622   0.55264    0.22158   1.00
H2       0.04343    0.53870    0.22362   1.00
C4       0.52084    0.75116    0.25281   1.00
C4       0.47912    0.75145    0.25215   1.00
C3       0.54364    0.77943    0.27276   1.00
C3       0.45616    0.78194    0.26831   1.00
C3       0.54123    0.72141    0.23198   1.00
C3       0.45886    0.71962    0.23451   1.00
C2       0.60512    0.74966    0.25115   1.00
C2       0.39488    0.75034    0.24885   1.00
C3       0.58462    0.77886    0.27178   1.00
C3       0.41519    0.78124    0.26704   1.00
C3       0.58258    0.72091    0.23196   1.00
C3       0.41762    0.72029    0.23206   1.00
H1       0.53115    0.80119    0.28869   1.00
H1       0.46852    0.80566    0.28126   1.00
C5       0.52020    0.69225    0.21144   1.00
C5       0.47980    0.68745    0.21911   1.00
H1       0.59955    0.80023    0.28652   1.00
H1       0.40010    0.80392    0.27950   1.00
H1       0.59680    0.69877    0.21779   1.00
H1       0.40368    0.69853    0.21716   1.00
O3       0.53961    0.66766    0.18623   1.00
O3       0.46099    0.65321    0.20906   1.00
Si1      0.54247    0.67862    0.13994   1.00
Si1      0.45279    0.62071    0.24288   1.00
C6       0.57538    0.64131    0.12657   1.00
C6       0.49598    0.67075    0.11936   1.00
C6       0.56253    0.72528    0.13125   1.00
C6       0.46693    0.63169    0.29126   1.00
C6       0.40198    0.61448    0.24095   1.00
C6       0.47477    0.57686    0.22748   1.00
C6       0.61194    0.63630    0.15362   1.00
H2       0.55791    0.61504    0.13105   1.00
C6       0.59147    0.63823    0.08379   1.00
H2       0.48358    0.64915    0.13919   1.00
C6       0.46634    0.70547    0.11876   1.00
C6       0.49336    0.65212    0.07774   1.00
H2       0.58831    0.72510    0.15004   1.00
C6       0.57772    0.73401    0.08901   1.00
C6       0.53849    0.76270    0.14248   1.00
C6       0.51071    0.64196    0.29903   1.00
C6       0.44225    0.66134    0.31579   1.00
H2       0.46212    0.60394    0.30614   1.00
H2       0.39051    0.64183    0.25253   1.00
C6       0.38378    0.61041    0.19922   1.00
C6       0.38393    0.58114    0.26634   1.00
H2       0.45375    0.56446    0.20700   1.00
C6       0.51336    0.58089    0.20373   1.00
C6       0.48244    0.54448    0.25881   1.00
H2       0.60346    0.63186    0.18403   1.00
H2       0.63090    0.66191    0.15230   1.00
H2       0.62917    0.61082    0.14514   1.00
H2       0.59608    0.60762    0.07604   1.00
H2       0.57178    0.65063    0.06224   1.00
H2       0.61964    0.65275    0.08039   1.00
H2       0.43672    0.69494    0.11323   1.00
H2       0.46532    0.72079    0.14655   1.00
H2       0.47352    0.72637    0.09582   1.00
H2       0.50862    0.62420    0.07651   1.00
H2       0.46308    0.64605    0.06963   1.00
H2       0.50550    0.67161    0.05563   1.00
H2       0.55514    0.72830    0.06726   1.00
H2       0.58708    0.76436    0.08565   1.00
H2       0.60332    0.71663    0.08213   1.00
H2       0.51902    0.77192    0.11901   1.00
H2       0.52068    0.75899    0.16832   1.00
H2       0.55828    0.78705    0.14835   1.00
H2       0.51688    0.67255    0.29297   1.00
H2       0.51809    0.63687    0.32965   1.00
H2       0.53048    0.62420    0.28165   1.00
H2       0.45125    0.66083    0.34641   1.00
H2       0.44574    0.69122    0.30565   1.00
H2       0.41122    0.65427    0.31551   1.00
H2       0.35202    0.61339    0.20058   1.00
H2       0.39435    0.63324    0.17963   1.00
H2       0.39035    0.58218    0.18604   1.00
H2       0.39416    0.58240    0.29646   1.00
H2       0.35212    0.58379    0.26721   1.00
H2       0.39085    0.55239    0.25444   1.00
H2       0.53656    0.59447    0.22073   1.00
H2       0.52381    0.55261    0.19337   1.00
H2       0.50834    0.59883    0.17811   1.00
H2       0.49044    0.51690    0.24487   1.00
H2       0.50622    0.55264    0.27842   1.00
H2       0.45657    0.53870    0.27638   1.00
C4       0.24719    0.47916    0.25116   1.00
C4       0.24785    0.52088    0.25145   1.00
C3       0.22724    0.45636    0.27943   1.00
C3       0.23169    0.54384    0.28194   1.00
C3       0.26802    0.45877    0.22141   1.00
C3       0.26549    0.54114    0.21962   1.00
C2       0.24885    0.39488    0.24966   1.00
C2       0.25115    0.60512    0.25034   1.00
C3       0.22822    0.41538    0.27886   1.00
C3       0.23296    0.58481    0.28124   1.00
C3       0.26804    0.41742    0.22091   1.00
C3       0.26794    0.58238    0.22029   1.00
H1       0.21131    0.46885    0.30119   1.00
H1       0.21874    0.53148    0.30566   1.00
C5       0.28856    0.47980    0.19225   1.00
C5       0.28089    0.52020    0.18745   1.00
H1       0.21348    0.40045    0.30023   1.00
H1       0.22050    0.59990    0.30392   1.00
H1       0.28221    0.40320    0.19877   1.00
H1       0.28284    0.59632    0.19853   1.00
O3       0.31377    0.46039    0.16766   1.00
O3       0.29094    0.53901    0.15321   1.00
Si1      0.36006    0.45753    0.17862   1.00
Si1      0.25712    0.54721    0.12071   1.00
C6       0.37343    0.42462    0.14131   1.00
C6       0.38064    0.50402    0.17075   1.00
C6       0.36875    0.43747    0.22528   1.00
C6       0.20874    0.53307    0.13169   1.00
C6       0.25905    0.59802    0.11448   1.00
C6       0.27252    0.52523    0.07686   1.00
C6       0.34638    0.38806    0.13630   1.00
H2       0.36895    0.44209    0.11504   1.00
C6       0.41621    0.40853    0.13823   1.00
H2       0.36081    0.51642    0.14915   1.00
C6       0.38124    0.53366    0.20547   1.00
C6       0.42226    0.50664    0.15212   1.00
H2       0.34996    0.41169    0.22510   1.00
C6       0.41099    0.42228    0.23401   1.00
C6       0.35752    0.46151    0.26270   1.00
C6       0.20097    0.48929    0.14196   1.00
C6       0.18421    0.55775    0.16134   1.00
H2       0.19386    0.53788    0.10394   1.00
H2       0.24747    0.60949    0.14183   1.00
C6       0.30078    0.61622    0.11041   1.00
C6       0.23366    0.61607    0.08114   1.00
H2       0.29300    0.54625    0.06446   1.00
C6       0.29627    0.48664    0.08089   1.00
C6       0.24119    0.51756    0.04448   1.00
H2       0.31597    0.39654    0.13186   1.00
H2       0.34770    0.36910    0.16191   1.00
H2       0.35486    0.37083    0.11082   1.00
H2       0.42396    0.40392    0.10762   1.00
H2       0.43776    0.42822    0.15063   1.00
H2       0.41961    0.38036    0.15275   1.00
H2       0.38677    0.56328    0.19494   1.00
H2       0.35345    0.53468    0.22079   1.00
H2       0.40418    0.52648    0.22637   1.00
H2       0.42349    0.49138    0.12420   1.00
H2       0.43037    0.53692    0.14605   1.00
H2       0.44437    0.49450    0.17161   1.00
H2       0.43274    0.44486    0.22830   1.00
H2       0.41435    0.41292    0.26436   1.00
H2       0.41787    0.39668    0.21663   1.00
H2       0.38099    0.48098    0.27192   1.00
H2       0.33168    0.47932    0.25899   1.00
H2       0.35165    0.44172    0.28705   1.00
H2       0.20703    0.48312    0.17255   1.00
H2       0.17035    0.48191    0.13687   1.00
H2       0.21835    0.46952    0.12420   1.00
H2       0.15359    0.54875    0.16083   1.00
H2       0.19435    0.55426    0.19122   1.00
H2       0.18449    0.58878    0.15427   1.00
H2       0.29942    0.64798    0.11339   1.00
H2       0.32037    0.60565    0.13324   1.00
H2       0.31396    0.60965    0.08218   1.00
H2       0.20354    0.60584    0.08240   1.00
H2       0.23279    0.64788    0.08379   1.00
H2       0.24556    0.60915    0.05239   1.00
H2       0.27927    0.46344    0.09447   1.00
H2       0.30663    0.47619    0.05261   1.00
H2       0.32189    0.49166    0.09883   1.00
H2       0.25513    0.50956    0.01690   1.00
H2       0.22158    0.49378    0.05264   1.00
H2       0.22362    0.54343    0.03870   1.00
C4       0.25116    0.74719    -0.02084   1.00
C4       0.25145    0.74785    0.02088   1.00
C3       0.27943    0.72724    -0.04364   1.00
C3       0.28194    0.73169    0.04384   1.00
C3       0.22141    0.76802    -0.04123   1.00
C3       0.21962    0.76549    0.04114   1.00
C2       0.24966    0.74885    -0.10512   1.00
C2       0.25034    0.75115    0.10512   1.00
C3       0.27886    0.72822    -0.08462   1.00
C3       0.28124    0.73296    0.08481   1.00
C3       0.22091    0.76804    -0.08258   1.00
C3       0.22029    0.76794    0.08238   1.00
H1       0.30119    0.71131    -0.03115   1.00
H1       0.30566    0.71874    0.03148   1.00
C5       0.19225    0.78856    -0.02020   1.00
C5       0.18745    0.78089    0.02020   1.00
H1       0.30023    0.71348    -0.09955   1.00
H1       0.30392    0.72050    0.09990   1.00
H1       0.19877    0.78221    -0.09680   1.00
H1       0.19853    0.78284    0.09632   1.00
O3       0.16766    0.81377    -0.03961   1.00
O3       0.15321    0.79094    0.03901   1.00
Si1      0.17862    0.86006    -0.04247   1.00
Si1      0.12071    0.75712    0.04721   1.00
C6       0.14131    0.87343    -0.07538   1.00
C6       0.17075    0.88064    0.00402   1.00
C6       0.22528    0.86875    -0.06253   1.00
C6       0.13169    0.70874    0.03307   1.00
C6       0.11448    0.75905    0.09802   1.00
C6       0.07686    0.77252    0.02523   1.00
C6       0.13630    0.84638    -0.11194   1.00
H2       0.11504    0.86895    -0.05791   1.00
C6       0.13823    0.91621    -0.09147   1.00
H2       0.14915    0.86081    0.01642   1.00
C6       0.20547    0.88124    0.03366   1.00
C6       0.15212    0.92226    0.00664   1.00
H2       0.22510    0.84996    -0.08831   1.00
C6       0.23401    0.91099    -0.07772   1.00
C6       0.26270    0.85752    -0.03849   1.00
C6       0.14196    0.70097    -0.01071   1.00
C6       0.16134    0.68421    0.05775   1.00
H2       0.10394    0.69386    0.03788   1.00
H2       0.14183    0.74747    0.10949   1.00
C6       0.11041    0.80078    0.11622   1.00
C6       0.08114    0.73366    0.11607   1.00
H2       0.06446    0.79300    0.04625   1.00
C6       0.08089    0.79627    -0.01336   1.00
C6       0.04448    0.74119    0.01756   1.00
H2       0.13186    0.81597    -0.10346   1.00
H2       0.16191    0.84770    -0.13090   1.00
H2       0.11082    0.85486    -0.12917   1.00
H2       0.10762    0.92396    -0.09608   1.00
H2       0.15063    0.93776    -0.07178   1.00
H2       0.15275    0.91961    -0.11964   1.00
H2       0.19494    0.88677    0.06328   1.00
H2       0.22079    0.85345    0.03468   1.00
H2       0.22637    0.90418    0.02648   1.00
H2       0.12420    0.92349    -0.00862   1.00
H2       0.14605    0.93037    0.03692   1.00
H2       0.17161    0.94437    -0.00550   1.00
H2       0.22830    0.93274    -0.05514   1.00
H2       0.26436    0.91435    -0.08708   1.00
H2       0.21663    0.91787    -0.10332   1.00
H2       0.27192    0.88099    -0.01902   1.00
H2       0.25899    0.83168    -0.02068   1.00
H2       0.28705    0.85165    -0.05828   1.00
H2       0.17255    0.70703    -0.01688   1.00
H2       0.13687    0.67035    -0.01809   1.00
H2       0.12420    0.71835    -0.03048   1.00
H2       0.16083    0.65359    0.04875   1.00
H2       0.19122    0.69435    0.05426   1.00
H2       0.15427    0.68449    0.08878   1.00
H2       0.11339    0.79942    0.14798   1.00
H2       0.13324    0.82037    0.10565   1.00
H2       0.08218    0.81396    0.10965   1.00
H2       0.08240    0.70354    0.10584   1.00
H2       0.08379    0.73279    0.14788   1.00
H2       0.05239    0.74556    0.10915   1.00
H2       0.09447    0.77927    -0.03656   1.00
H2       0.05261    0.80663    -0.02381   1.00
H2       0.09883    0.82189    -0.00834   1.00
H2       0.01690    0.75513    0.00956   1.00
H2       0.05264    0.72158    -0.00622   1.00
H2       0.03870    0.72362    0.04343   1.00
C4       0.75116    0.25281    0.52084   1.00
C4       0.75145    0.25215    0.47912   1.00
C3       0.77943    0.27276    0.54364   1.00
C3       0.78194    0.26831    0.45616   1.00
C3       0.72141    0.23198    0.54123   1.00
C3       0.71962    0.23451    0.45886   1.00
C2       0.74966    0.25115    0.60512   1.00
C2       0.75034    0.24885    0.39488   1.00
C3       0.77886    0.27178    0.58462   1.00
C3       0.78124    0.26704    0.41519   1.00
C3       0.72091    0.23196    0.58258   1.00
C3       0.72029    0.23206    0.41762   1.00
H1       0.80119    0.28869    0.53115   1.00
H1       0.80566    0.28126    0.46852   1.00
C5       0.69225    0.21144    0.52020   1.00
C5       0.68745    0.21911    0.47980   1.00
H1       0.80023    0.28652    0.59955   1.00
H1       0.80392    0.27950    0.40010   1.00
H1       0.69877    0.21779    0.59680   1.00
H1       0.69853    0.21716    0.40368   1.00
O3       0.66766    0.18623    0.53961   1.00
O3       0.65321    0.20906    0.46099   1.00
Si1      0.67862    0.13994    0.54247   1.00
Si1      0.62071    0.24288    0.45279   1.00
C6       0.64131    0.12657    0.57538   1.00
C6       0.67075    0.11936    0.49598   1.00
C6       0.72528    0.13125    0.56253   1.00
C6       0.63169    0.29126    0.46693   1.00
C6       0.61448    0.24095    0.40198   1.00
C6       0.57686    0.22748    0.47477   1.00
C6       0.63630    0.15362    0.61194   1.00
H2       0.61504    0.13105    0.55791   1.00
C6       0.63823    0.08379    0.59147   1.00
H2       0.64915    0.13919    0.48358   1.00
C6       0.70547    0.11876    0.46634   1.00
C6       0.65212    0.07774    0.49336   1.00
H2       0.72510    0.15004    0.58831   1.00
C6       0.73401    0.08901    0.57772   1.00
C6       0.76270    0.14248    0.53849   1.00
C6       0.64196    0.29903    0.51071   1.00
C6       0.66134    0.31579    0.44225   1.00
H2       0.60394    0.30614    0.46212   1.00
H2       0.64183    0.25253    0.39051   1.00
C6       0.61041    0.19922    0.38378   1.00
C6       0.58114    0.26634    0.38393   1.00
H2       0.56446    0.20700    0.45375   1.00
C6       0.58089    0.20373    0.51336   1.00
C6       0.54448    0.25881    0.48244   1.00
H2       0.63186    0.18403    0.60346   1.00
H2       0.66191    0.15230    0.63090   1.00
H2       0.61082    0.14514    0.62917   1.00
H2       0.60762    0.07604    0.59608   1.00
H2       0.65063    0.06224    0.57178   1.00
H2       0.65275    0.08039    0.61964   1.00
H2       0.69494    0.11323    0.43672   1.00
H2       0.72079    0.14655    0.46532   1.00
H2       0.72637    0.09582    0.47352   1.00
H2       0.62420    0.07651    0.50862   1.00
H2       0.64605    0.06963    0.46308   1.00
H2       0.67161    0.05563    0.50550   1.00
H2       0.72830    0.06726    0.55514   1.00
H2       0.76436    0.08565    0.58708   1.00
H2       0.71663    0.08213    0.60332   1.00
H2       0.77192    0.11901    0.51902   1.00
H2       0.75899    0.16832    0.52068   1.00
H2       0.78705    0.14835    0.55828   1.00
H2       0.67255    0.29297    0.51688   1.00
H2       0.63687    0.32965    0.51809   1.00
H2       0.62420    0.28165    0.53048   1.00
H2       0.66083    0.34641    0.45125   1.00
H2       0.69122    0.30565    0.44574   1.00
H2       0.65427    0.31551    0.41122   1.00
H2       0.61339    0.20058    0.35202   1.00
H2       0.63324    0.17963    0.39435   1.00
H2       0.58218    0.18604    0.39035   1.00
H2       0.58240    0.29646    0.39416   1.00
H2       0.58379    0.26721    0.35212   1.00
H2       0.55239    0.25444    0.39085   1.00
H2       0.59447    0.22073    0.53656   1.00
H2       0.55261    0.19337    0.52381   1.00
H2       0.59883    0.17811    0.50834   1.00
H2       0.51690    0.24487    0.49044   1.00
H2       0.55264    0.27842    0.50622   1.00
H2       0.53870    0.27638    0.45657   1.00
C4       0.75281    0.52084    0.25116   1.00
C4       0.75215    0.47912    0.25145   1.00
C3       0.77276    0.54364    0.27943   1.00
C3       0.76831    0.45616    0.28194   1.00
C3       0.73198    0.54123    0.22141   1.00
C3       0.73451    0.45886    0.21962   1.00
C2       0.75115    0.60512    0.24966   1.00
C2       0.74885    0.39488    0.25034   1.00
C3       0.77178    0.58462    0.27886   1.00
C3       0.76704    0.41519    0.28124   1.00
C3       0.73196    0.58258    0.22091   1.00
C3       0.73206    0.41762    0.22029   1.00
H1       0.78869    0.53115    0.30119   1.00
H1       0.78126    0.46852    0.30566   1.00
C5       0.71144    0.52020    0.19225   1.00
C5       0.71911    0.47980    0.18745   1.00
H1       0.78652    0.59955    0.30023   1.00
H1       0.77950    0.40010    0.30392   1.00
H1       0.71779    0.59680    0.19877   1.00
H1       0.71716    0.40368    0.19853   1.00
O3       0.68623    0.53961    0.16766   1.00
O3       0.70906    0.46099    0.15321   1.00
Si1      0.63994    0.54247    0.17862   1.00
Si1      0.74288    0.45279    0.12071   1.00
C6       0.62657    0.57538    0.14131   1.00
C6       0.61936    0.49598    0.17075   1.00
C6       0.63125    0.56253    0.22528   1.00
C6       0.79126    0.46693    0.13169   1.00
C6       0.74095    0.40198    0.11448   1.00
C6       0.72748    0.47477    0.07686   1.00
C6       0.65362    0.61194    0.13630   1.00
H2       0.63105    0.55791    0.11504   1.00
C6       0.58379    0.59147    0.13823   1.00
H2       0.63919    0.48358    0.14915   1.00
C6       0.61876    0.46634    0.20547   1.00
C6       0.57774    0.49336    0.15212   1.00
H2       0.65004    0.58831    0.22510   1.00
C6       0.58901    0.57772    0.23401   1.00
C6       0.64248    0.53849    0.26270   1.00
C6       0.79903    0.51071    0.14196   1.00
C6       0.81579    0.44225    0.16134   1.00
H2       0.80614    0.46212    0.10394   1.00
H2       0.75253    0.39051    0.14183   1.00
C6       0.69922    0.38378    0.11041   1.00
C6       0.76634    0.38393    0.08114   1.00
H2       0.70700    0.45375    0.06446   1.00
C6       0.70373    0.51336    0.08089   1.00
C6       0.75881    0.48244    0.04448   1.00
H2       0.68403    0.60346    0.13186   1.00
H2       0.65230    0.63090    0.16191   1.00
H2       0.64514    0.62917    0.11082   1.00
H2       0.57604    0.59608    0.10762   1.00
H2       0.56224    0.57178    0.15063   1.00
H2       0.58039    0.61964    0.15275   1.00
H2       0.61323    0.43672    0.19494   1.00
H2       0.64655    0.46532    0.22079   1.00
H2       0.59582    0.47352    0.22637   1.00
H2       0.57651    0.50862    0.12420   1.00
H2       0.56963    0.46308    0.14605   1.00
H2       0.55563    0.50550    0.17161   1.00
H2       0.56726    0.55514    0.22830   1.00
H2       0.58565    0.58708    0.26436   1.00
H2       0.58213    0.60332    0.21663   1.00
H2       0.61901    0.51902    0.27192   1.00
H2       0.66832    0.52068    0.25899   1.00
H2       0.64835    0.55828    0.28705   1.00
H2       0.79297    0.51688    0.17255   1.00
H2       0.82965    0.51809    0.13687   1.00
H2       0.78165    0.53048    0.12420   1.00
H2       0.84641    0.45125    0.16083   1.00
H2       0.80565    0.44574    0.19122   1.00
H2       0.81551    0.41122    0.15427   1.00
H2       0.70058    0.35202    0.11339   1.00
H2       0.67963    0.39435    0.13324   1.00
H2       0.68604    0.39035    0.08218   1.00
H2       0.79646    0.39416    0.08240   1.00
H2       0.76721    0.35212    0.08379   1.00
H2       0.75444    0.39085    0.05239   1.00
H2       0.72073    0.53656    0.09447   1.00
H2       0.69337    0.52381    0.05261   1.00
H2       0.67811    0.50834    0.09883   1.00
H2       0.74487    0.49044    0.01690   1.00
H2       0.77842    0.50622    0.05264   1.00
H2       0.77638    0.45657    0.03870   1.00
C4       0.47916    0.25116    0.24719   1.00
C4       0.52088    0.25145    0.24785   1.00
C3       0.45636    0.27943    0.22724   1.00
C3       0.54384    0.28194    0.23169   1.00
C3       0.45877    0.22141    0.26802   1.00
C3       0.54114    0.21962    0.26549   1.00
C2       0.39488    0.24966    0.24885   1.00
C2       0.60512    0.25034    0.25115   1.00
C3       0.41538    0.27886    0.22822   1.00
C3       0.58481    0.28124    0.23296   1.00
C3       0.41742    0.22091    0.26804   1.00
C3       0.58238    0.22029    0.26794   1.00
H1       0.46885    0.30119    0.21131   1.00
H1       0.53148    0.30566    0.21874   1.00
C5       0.47980    0.19225    0.28856   1.00
C5       0.52020    0.18745    0.28089   1.00
H1       0.40045    0.30023    0.21348   1.00
H1       0.59990    0.30392    0.22050   1.00
H1       0.40320    0.19877    0.28221   1.00
H1       0.59632    0.19853    0.28284   1.00
O3       0.46039    0.16766    0.31377   1.00
O3       0.53901    0.15321    0.29094   1.00
Si1      0.45753    0.17862    0.36006   1.00
Si1      0.54721    0.12071    0.25712   1.00
C6       0.42462    0.14131    0.37343   1.00
C6       0.50402    0.17075    0.38064   1.00
C6       0.43747    0.22528    0.36875   1.00
C6       0.53307    0.13169    0.20874   1.00
C6       0.59802    0.11448    0.25905   1.00
C6       0.52523    0.07686    0.27252   1.00
C6       0.38806    0.13630    0.34638   1.00
H2       0.44209    0.11504    0.36895   1.00
C6       0.40853    0.13823    0.41621   1.00
H2       0.51642    0.14915    0.36081   1.00
C6       0.53366    0.20547    0.38124   1.00
C6       0.50664    0.15212    0.42226   1.00
H2       0.41169    0.22510    0.34996   1.00
C6       0.42228    0.23401    0.41099   1.00
C6       0.46151    0.26270    0.35752   1.00
C6       0.48929    0.14196    0.20097   1.00
C6       0.55775    0.16134    0.18421   1.00
H2       0.53788    0.10394    0.19386   1.00
H2       0.60949    0.14183    0.24747   1.00
C6       0.61622    0.11041    0.30078   1.00
C6       0.61607    0.08114    0.23366   1.00
H2       0.54625    0.06446    0.29300   1.00
C6       0.48664    0.08089    0.29627   1.00
C6       0.51756    0.04448    0.24119   1.00
H2       0.39654    0.13186    0.31597   1.00
H2       0.36910    0.16191    0.34770   1.00
H2       0.37083    0.11082    0.35486   1.00
H2       0.40392    0.10762    0.42396   1.00
H2       0.42822    0.15063    0.43776   1.00
H2       0.38036    0.15275    0.41961   1.00
H2       0.56328    0.19494    0.38677   1.00
H2       0.53468    0.22079    0.35345   1.00
H2       0.52648    0.22637    0.40418   1.00
H2       0.49138    0.12420    0.42349   1.00
H2       0.53692    0.14605    0.43037   1.00
H2       0.49450    0.17161    0.44437   1.00
H2       0.44486    0.22830    0.43274   1.00
H2       0.41292    0.26436    0.41435   1.00
H2       0.39668    0.21663    0.41787   1.00
H2       0.48098    0.27192    0.38099   1.00
H2       0.47932    0.25899    0.33168   1.00
H2       0.44172    0.28705    0.35165   1.00
H2       0.48312    0.17255    0.20703   1.00
H2       0.48191    0.13687    0.17035   1.00
H2       0.46952    0.12420    0.21835   1.00
H2       0.54875    0.16083    0.15359   1.00
H2       0.55426    0.19122    0.19435   1.00
H2       0.58878    0.15427    0.18449   1.00
H2       0.64798    0.11339    0.29942   1.00
H2       0.60565    0.13324    0.32037   1.00
H2       0.60965    0.08218    0.31396   1.00
H2       0.60584    0.08240    0.20354   1.00
H2       0.64788    0.08379    0.23279   1.00
H2       0.60915    0.05239    0.24556   1.00
H2       0.46344    0.09447    0.27927   1.00
H2       0.47619    0.05261    0.30663   1.00
H2       0.49166    0.09883    0.32189   1.00
H2       0.50956    0.01690    0.25513   1.00
H2       0.49378    0.05264    0.22158   1.00
H2       0.54343    0.03870    0.22362   1.00
C4       1.02084    0.25116    0.25281   1.00
C4       0.97912    0.25145    0.25215   1.00
C3       1.04364    0.27943    0.27276   1.00
C3       0.95616    0.28194    0.26831   1.00
C3       1.04123    0.22141    0.23198   1.00
C3       0.95886    0.21962    0.23451   1.00
C2       1.10512    0.24966    0.25115   1.00
C2       0.89488    0.25034    0.24885   1.00
C3       1.08462    0.27886    0.27178   1.00
C3       0.91519    0.28124    0.26704   1.00
C3       1.08258    0.22091    0.23196   1.00
C3       0.91762    0.22029    0.23206   1.00
H1       1.03115    0.30119    0.28869   1.00
H1       0.96852    0.30566    0.28126   1.00
C5       1.02020    0.19225    0.21144   1.00
C5       0.97980    0.18745    0.21911   1.00
H1       1.09955    0.30023    0.28652   1.00
H1       0.90010    0.30392    0.27950   1.00
H1       1.09680    0.19877    0.21779   1.00
H1       0.90368    0.19853    0.21716   1.00
O3       1.03961    0.16766    0.18623   1.00
O3       0.96099    0.15321    0.20906   1.00
Si1      1.04247    0.17862    0.13994   1.00
Si1      0.95279    0.12071    0.24288   1.00
C6       1.07538    0.14131    0.12657   1.00
C6       0.99598    0.17075    0.11936   1.00
C6       1.06253    0.22528    0.13125   1.00
C6       0.96693    0.13169    0.29126   1.00
C6       0.90198    0.11448    0.24095   1.00
C6       0.97477    0.07686    0.22748   1.00
C6       1.11194    0.13630    0.15362   1.00
H2       1.05791    0.11504    0.13105   1.00
C6       1.09147    0.13823    0.08379   1.00
H2       0.98358    0.14915    0.13919   1.00
C6       0.96634    0.20547    0.11876   1.00
C6       0.99336    0.15212    0.07774   1.00
H2       1.08831    0.22510    0.15004   1.00
C6       1.07772    0.23401    0.08901   1.00
C6       1.03849    0.26270    0.14248   1.00
C6       1.01071    0.14196    0.29903   1.00
C6       0.94225    0.16134    0.31579   1.00
H2       0.96212    0.10394    0.30614   1.00
H2       0.89051    0.14183    0.25253   1.00
C6       0.88378    0.11041    0.19922   1.00
C6       0.88393    0.08114    0.26634   1.00
H2       0.95375    0.06446    0.20700   1.00
C6       1.01336    0.08089    0.20373   1.00
C6       0.98244    0.04448    0.25881   1.00
H2       1.10346    0.13186    0.18403   1.00
H2       1.13090    0.16191    0.15230   1.00
H2       1.12917    0.11082    0.14514   1.00
H2       1.09608    0.10762    0.07604   1.00
H2       1.07178    0.15063    0.06224   1.00
H2       1.11964    0.15275    0.08039   1.00
H2       0.93672    0.19494    0.11323   1.00
H2       0.96532    0.22079    0.14655   1.00
H2       0.97352    0.22637    0.09582   1.00
H2       1.00862    0.12420    0.07651   1.00
H2       0.96308    0.14605    0.06963   1.00
H2       1.00550    0.17161    0.05563   1.00
H2       1.05514    0.22830    0.06726   1.00
H2       1.08708    0.26436    0.08565   1.00
H2       1.10332    0.21663    0.08213   1.00
H2       1.01902    0.27192    0.11901   1.00
H2       1.02068    0.25899    0.16832   1.00
H2       1.05828    0.28705    0.14835   1.00
H2       1.01688    0.17255    0.29297   1.00
H2       1.01809    0.13687    0.32965   1.00
H2       1.03048    0.12420    0.28165   1.00
H2       0.95125    0.16083    0.34641   1.00
H2       0.94574    0.19122    0.30565   1.00
H2       0.91122    0.15427    0.31551   1.00
H2       0.85202    0.11339    0.20058   1.00
H2       0.89435    0.13324    0.17963   1.00
H2       0.89035    0.08218    0.18604   1.00
H2       0.89416    0.08240    0.29646   1.00
H2       0.85212    0.08379    0.26721   1.00
H2       0.89085    0.05239    0.25444   1.00
H2       1.03656    0.09447    0.22073   1.00
H2       1.02381    0.05261    0.19337   1.00
H2       1.00834    0.09883    0.17811   1.00
H2       0.99044    0.01690    0.24487   1.00
H2       1.00622    0.05264    0.27842   1.00
H2       0.95657    0.03870    0.27638   1.00
C4       0.74719    -0.02084   0.25116   1.00
C4       0.74785    0.02088    0.25145   1.00
C3       0.72724    -0.04364   0.27943   1.00
C3       0.73169    0.04384    0.28194   1.00
C3       0.76802    -0.04123   0.22141   1.00
C3       0.76549    0.04114    0.21962   1.00
C2       0.74885    -0.10512   0.24966   1.00
C2       0.75115    0.10512    0.25034   1.00
C3       0.72822    -0.08462   0.27886   1.00
C3       0.73296    0.08481    0.28124   1.00
C3       0.76804    -0.08258   0.22091   1.00
C3       0.76794    0.08238    0.22029   1.00
H1       0.71131    -0.03115   0.30119   1.00
H1       0.71874    0.03148    0.30566   1.00
C5       0.78856    -0.02020   0.19225   1.00
C5       0.78089    0.02020    0.18745   1.00
H1       0.71348    -0.09955   0.30023   1.00
H1       0.72050    0.09990    0.30392   1.00
H1       0.78221    -0.09680   0.19877   1.00
H1       0.78284    0.09632    0.19853   1.00
O3       0.81377    -0.03961   0.16766   1.00
O3       0.79094    0.03901    0.15321   1.00
Si1      0.86006    -0.04247   0.17862   1.00
Si1      0.75712    0.04721    0.12071   1.00
C6       0.87343    -0.07538   0.14131   1.00
C6       0.88064    0.00402    0.17075   1.00
C6       0.86875    -0.06253   0.22528   1.00
C6       0.70874    0.03307    0.13169   1.00
C6       0.75905    0.09802    0.11448   1.00
C6       0.77252    0.02523    0.07686   1.00
C6       0.84638    -0.11194   0.13630   1.00
H2       0.86895    -0.05791   0.11504   1.00
C6       0.91621    -0.09147   0.13823   1.00
H2       0.86081    0.01642    0.14915   1.00
C6       0.88124    0.03366    0.20547   1.00
C6       0.92226    0.00664    0.15212   1.00
H2       0.84996    -0.08831   0.22510   1.00
C6       0.91099    -0.07772   0.23401   1.00
C6       0.85752    -0.03849   0.26270   1.00
C6       0.70097    -0.01071   0.14196   1.00
C6       0.68421    0.05775    0.16134   1.00
H2       0.69386    0.03788    0.10394   1.00
H2       0.74747    0.10949    0.14183   1.00
C6       0.80078    0.11622    0.11041   1.00
C6       0.73366    0.11607    0.08114   1.00
H2       0.79300    0.04625    0.06446   1.00
C6       0.79627    -0.01336   0.08089   1.00
C6       0.74119    0.01756    0.04448   1.00
H2       0.81597    -0.10346   0.13186   1.00
H2       0.84770    -0.13090   0.16191   1.00
H2       0.85486    -0.12917   0.11082   1.00
H2       0.92396    -0.09608   0.10762   1.00
H2       0.93776    -0.07178   0.15063   1.00
H2       0.91961    -0.11964   0.15275   1.00
H2       0.88677    0.06328    0.19494   1.00
H2       0.85345    0.03468    0.22079   1.00
H2       0.90418    0.02648    0.22637   1.00
H2       0.92349    -0.00862   0.12420   1.00
H2       0.93037    0.03692    0.14605   1.00
H2       0.94437    -0.00550   0.17161   1.00
H2       0.93274    -0.05514   0.22830   1.00
H2       0.91435    -0.08708   0.26436   1.00
H2       0.91787    -0.10332   0.21663   1.00
H2       0.88099    -0.01902   0.27192   1.00
H2       0.83168    -0.02068   0.25899   1.00
H2       0.85165    -0.05828   0.28705   1.00
H2       0.70703    -0.01688   0.17255   1.00
H2       0.67035    -0.01809   0.13687   1.00
H2       0.71835    -0.03048   0.12420   1.00
H2       0.65359    0.04875    0.16083   1.00
H2       0.69435    0.05426    0.19122   1.00
H2       0.68449    0.08878    0.15427   1.00
H2       0.79942    0.14798    0.11339   1.00
H2       0.82037    0.10565    0.13324   1.00
H2       0.81396    0.10965    0.08218   1.00
H2       0.70354    0.10584    0.08240   1.00
H2       0.73279    0.14788    0.08379   1.00
H2       0.74556    0.10915    0.05239   1.00
H2       0.77927    -0.03656   0.09447   1.00
H2       0.80663    -0.02381   0.05261   1.00
H2       0.82189    -0.00834   0.09883   1.00
H2       0.75513    0.00956    0.01690   1.00
H2       0.72158    -0.00622   0.05264   1.00
H2       0.72362    0.04343    0.03870   1.00
C4       0.75116    0.24719    -0.02084   1.00
C4       0.75145    0.24785    0.02088   1.00
C3       0.77943    0.22724    -0.04364   1.00
C3       0.78194    0.23169    0.04384   1.00
C3       0.72141    0.26802    -0.04123   1.00
C3       0.71962    0.26549    0.04114   1.00
C2       0.74966    0.24885    -0.10512   1.00
C2       0.75034    0.25115    0.10512   1.00
C3       0.77886    0.22822    -0.08462   1.00
C3       0.78124    0.23296    0.08481   1.00
C3       0.72091    0.26804    -0.08258   1.00
C3       0.72029    0.26794    0.08238   1.00
H1       0.80119    0.21131    -0.03115   1.00
H1       0.80566    0.21874    0.03148   1.00
C5       0.69225    0.28856    -0.02020   1.00
C5       0.68745    0.28089    0.02020   1.00
H1       0.80023    0.21348    -0.09955   1.00
H1       0.80392    0.22050    0.09990   1.00
H1       0.69877    0.28221    -0.09680   1.00
H1       0.69853    0.28284    0.09632   1.00
O3       0.66766    0.31377    -0.03961   1.00
O3       0.65321    0.29094    0.03901   1.00
Si1      0.67862    0.36006    -0.04247   1.00
Si1      0.62071    0.25712    0.04721   1.00
C6       0.64131    0.37343    -0.07538   1.00
C6       0.67075    0.38064    0.00402   1.00
C6       0.72528    0.36875    -0.06253   1.00
C6       0.63169    0.20874    0.03307   1.00
C6       0.61448    0.25905    0.09802   1.00
C6       0.57686    0.27252    0.02523   1.00
C6       0.63630    0.34638    -0.11194   1.00
H2       0.61504    0.36895    -0.05791   1.00
C6       0.63823    0.41621    -0.09147   1.00
H2       0.64915    0.36081    0.01642   1.00
C6       0.70547    0.38124    0.03366   1.00
C6       0.65212    0.42226    0.00664   1.00
H2       0.72510    0.34996    -0.08831   1.00
C6       0.73401    0.41099    -0.07772   1.00
C6       0.76270    0.35752    -0.03849   1.00
C6       0.64196    0.20097    -0.01071   1.00
C6       0.66134    0.18421    0.05775   1.00
H2       0.60394    0.19386    0.03788   1.00
H2       0.64183    0.24747    0.10949   1.00
C6       0.61041    0.30078    0.11622   1.00
C6       0.58114    0.23366    0.11607   1.00
H2       0.56446    0.29300    0.04625   1.00
C6       0.58089    0.29627    -0.01336   1.00
C6       0.54448    0.24119    0.01756   1.00
H2       0.63186    0.31597    -0.10346   1.00
H2       0.66191    0.34770    -0.13090   1.00
H2       0.61082    0.35486    -0.12917   1.00
H2       0.60762    0.42396    -0.09608   1.00
H2       0.65063    0.43776    -0.07178   1.00
H2       0.65275    0.41961    -0.11964   1.00
H2       0.69494    0.38677    0.06328   1.00
H2       0.72079    0.35345    0.03468   1.00
H2       0.72637    0.40418    0.02648   1.00
H2       0.62420    0.42349    -0.00862   1.00
H2       0.64605    0.43037    0.03692   1.00
H2       0.67161    0.44437    -0.00550   1.00
H2       0.72830    0.43274    -0.05514   1.00
H2       0.76436    0.41435    -0.08708   1.00
H2       0.71663    0.41787    -0.10332   1.00
H2       0.77192    0.38099    -0.01902   1.00
H2       0.75899    0.33168    -0.02068   1.00
H2       0.78705    0.35165    -0.05828   1.00
H2       0.67255    0.20703    -0.01688   1.00
H2       0.63687    0.17035    -0.01809   1.00
H2       0.62420    0.21835    -0.03048   1.00
H2       0.66083    0.15359    0.04875   1.00
H2       0.69122    0.19435    0.05426   1.00
H2       0.65427    0.18449    0.08878   1.00
H2       0.61339    0.29942    0.14798   1.00
H2       0.63324    0.32037    0.10565   1.00
H2       0.58218    0.31396    0.10965   1.00
H2       0.58240    0.20354    0.10584   1.00
H2       0.58379    0.23279    0.14788   1.00
H2       0.55239    0.24556    0.10915   1.00
H2       0.59447    0.27927    -0.03656   1.00
H2       0.55261    0.30663    -0.02381   1.00
H2       0.59883    0.32189    -0.00834   1.00
H2       0.51690    0.25513    0.00956   1.00
H2       0.55264    0.22158    -0.00622   1.00
H2       0.53870    0.22362    0.04343   1.00
