data_IRMOF10_SG202_Ligand11_label_n.

_audit_creation_method             'generated by an auxiliary program of Tobunporous'

_symmetry_space_group_name_H-M     'P 1'
_symmetry_Int_Tables_number        1
_symmetry_cell_setting             triclinic

_cell_length_a                    34.2800
_cell_length_b                    34.2800
_cell_length_c                    34.2800
_cell_angle_alpha                 90.0000
_cell_angle_beta                  90.0000
_cell_angle_gamma                 90.0000

loop_
_atom_site_label
_atom_site_fract_x
_atom_site_fract_y
_atom_site_fract_z
_atom_site_occupancy
O1       0.75000    0.75000    0.75000   1.00
Zn1      0.71720    0.78280    0.78280   1.00
Zn1      0.78280    0.71720    0.78280   1.00
Zn1      0.78280    0.78280    0.71720   1.00
Zn1      0.71720    0.71720    0.71720   1.00
O2       0.72650    0.77350    0.83820   1.00
O2       0.72650    0.83820    0.77350   1.00
O2       0.66180    0.77350    0.77350   1.00
O2       0.77350    0.72650    0.83820   1.00
O2       0.83820    0.72650    0.77350   1.00
O2       0.77350    0.66180    0.77350   1.00
O2       0.77350    0.83820    0.72650   1.00
O2       0.83820    0.77350    0.72650   1.00
O2       0.77350    0.77350    0.66180   1.00
O2       0.66180    0.72650    0.72650   1.00
O2       0.72650    0.66180    0.72650   1.00
O2       0.72650    0.72650    0.66180   1.00
C1       0.75000    0.75000    0.85520   1.00
C1       0.75000    0.85520    0.75000   1.00
C1       0.64480    0.75000    0.75000   1.00
C1       0.85520    0.75000    0.75000   1.00
C1       0.75000    0.64480    0.75000   1.00
C1       0.75000    0.75000    0.64480   1.00
O1       0.25000    0.25000    0.75000   1.00
Zn1      0.21720    0.28280    0.78280   1.00
Zn1      0.28280    0.21720    0.78280   1.00
Zn1      0.28280    0.28280    0.71720   1.00
Zn1      0.21720    0.21720    0.71720   1.00
O2       0.22650    0.27350    0.83820   1.00
O2       0.22650    0.33820    0.77350   1.00
O2       0.16180    0.27350    0.77350   1.00
O2       0.27350    0.22650    0.83820   1.00
O2       0.33820    0.22650    0.77350   1.00
O2       0.27350    0.16180    0.77350   1.00
O2       0.27350    0.33820    0.72650   1.00
O2       0.33820    0.27350    0.72650   1.00
O2       0.27350    0.27350    0.66180   1.00
O2       0.16180    0.22650    0.72650   1.00
O2       0.22650    0.16180    0.72650   1.00
O2       0.22650    0.22650    0.66180   1.00
C1       0.25000    0.25000    0.85520   1.00
C1       0.25000    0.35520    0.75000   1.00
C1       0.14480    0.25000    0.75000   1.00
C1       0.35520    0.25000    0.75000   1.00
C1       0.25000    0.14480    0.75000   1.00
C1       0.25000    0.25000    0.64480   1.00
O1       0.25000    0.75000    0.25000   1.00
Zn1      0.21720    0.78280    0.28280   1.00
Zn1      0.28280    0.71720    0.28280   1.00
Zn1      0.28280    0.78280    0.21720   1.00
Zn1      0.21720    0.71720    0.21720   1.00
O2       0.22650    0.77350    0.33820   1.00
O2       0.22650    0.83820    0.27350   1.00
O2       0.16180    0.77350    0.27350   1.00
O2       0.27350    0.72650    0.33820   1.00
O2       0.33820    0.72650    0.27350   1.00
O2       0.27350    0.66180    0.27350   1.00
O2       0.27350    0.83820    0.22650   1.00
O2       0.33820    0.77350    0.22650   1.00
O2       0.27350    0.77350    0.16180   1.00
O2       0.16180    0.72650    0.22650   1.00
O2       0.22650    0.66180    0.22650   1.00
O2       0.22650    0.72650    0.16180   1.00
C1       0.25000    0.75000    0.35520   1.00
C1       0.25000    0.85520    0.25000   1.00
C1       0.14480    0.75000    0.25000   1.00
C1       0.35520    0.75000    0.25000   1.00
C1       0.25000    0.64480    0.25000   1.00
C1       0.25000    0.75000    0.14480   1.00
O1       0.75000    0.25000    0.25000   1.00
Zn1      0.71720    0.28280    0.28280   1.00
Zn1      0.78280    0.21720    0.28280   1.00
Zn1      0.78280    0.28280    0.21720   1.00
Zn1      0.71720    0.21720    0.21720   1.00
O2       0.72650    0.27350    0.33820   1.00
O2       0.72650    0.33820    0.27350   1.00
O2       0.66180    0.27350    0.27350   1.00
O2       0.77350    0.22650    0.33820   1.00
O2       0.83820    0.22650    0.27350   1.00
O2       0.77350    0.16180    0.27350   1.00
O2       0.77350    0.33820    0.22650   1.00
O2       0.83820    0.27350    0.22650   1.00
O2       0.77350    0.27350    0.16180   1.00
O2       0.66180    0.22650    0.22650   1.00
O2       0.72650    0.16180    0.22650   1.00
O2       0.72650    0.22650    0.16180   1.00
C1       0.75000    0.25000    0.35520   1.00
C1       0.75000    0.35520    0.25000   1.00
C1       0.64480    0.25000    0.25000   1.00
C1       0.85520    0.25000    0.25000   1.00
C1       0.75000    0.14480    0.25000   1.00
C1       0.75000    0.25000    0.14480   1.00
O1       0.25000    0.25000    0.25000   1.00
Zn1      0.28280    0.21720    0.21720   1.00
Zn1      0.21720    0.28280    0.21720   1.00
Zn1      0.21720    0.21720    0.28280   1.00
Zn1      0.28280    0.28280    0.28280   1.00
O2       0.27350    0.22650    0.16180   1.00
O2       0.27350    0.16180    0.22650   1.00
O2       0.33820    0.22650    0.22650   1.00
O2       0.22650    0.27350    0.16180   1.00
O2       0.16180    0.27350    0.22650   1.00
O2       0.22650    0.33820    0.22650   1.00
O2       0.22650    0.16180    0.27350   1.00
O2       0.16180    0.22650    0.27350   1.00
O2       0.22650    0.22650    0.33820   1.00
O2       0.33820    0.27350    0.27350   1.00
O2       0.27350    0.33820    0.27350   1.00
O2       0.27350    0.27350    0.33820   1.00
C1       0.25000    0.25000    0.14480   1.00
C1       0.25000    0.14480    0.25000   1.00
C1       0.35520    0.25000    0.25000   1.00
C1       0.14480    0.25000    0.25000   1.00
C1       0.25000    0.35520    0.25000   1.00
C1       0.25000    0.25000    0.35520   1.00
O1       0.75000    0.75000    0.25000   1.00
Zn1      0.78280    0.71720    0.21720   1.00
Zn1      0.71720    0.78280    0.21720   1.00
Zn1      0.71720    0.71720    0.28280   1.00
Zn1      0.78280    0.78280    0.28280   1.00
O2       0.77350    0.72650    0.16180   1.00
O2       0.77350    0.66180    0.22650   1.00
O2       0.83820    0.72650    0.22650   1.00
O2       0.72650    0.77350    0.16180   1.00
O2       0.66180    0.77350    0.22650   1.00
O2       0.72650    0.83820    0.22650   1.00
O2       0.72650    0.66180    0.27350   1.00
O2       0.66180    0.72650    0.27350   1.00
O2       0.72650    0.72650    0.33820   1.00
O2       0.83820    0.77350    0.27350   1.00
O2       0.77350    0.83820    0.27350   1.00
O2       0.77350    0.77350    0.33820   1.00
C1       0.75000    0.75000    0.14480   1.00
C1       0.75000    0.64480    0.25000   1.00
C1       0.85520    0.75000    0.25000   1.00
C1       0.64480    0.75000    0.25000   1.00
C1       0.75000    0.85520    0.25000   1.00
C1       0.75000    0.75000    0.35520   1.00
O1       0.75000    0.25000    0.75000   1.00
Zn1      0.78280    0.21720    0.71720   1.00
Zn1      0.71720    0.28280    0.71720   1.00
Zn1      0.71720    0.21720    0.78280   1.00
Zn1      0.78280    0.28280    0.78280   1.00
O2       0.77350    0.22650    0.66180   1.00
O2       0.77350    0.16180    0.72650   1.00
O2       0.83820    0.22650    0.72650   1.00
O2       0.72650    0.27350    0.66180   1.00
O2       0.66180    0.27350    0.72650   1.00
O2       0.72650    0.33820    0.72650   1.00
O2       0.72650    0.16180    0.77350   1.00
O2       0.66180    0.22650    0.77350   1.00
O2       0.72650    0.22650    0.83820   1.00
O2       0.83820    0.27350    0.77350   1.00
O2       0.77350    0.33820    0.77350   1.00
O2       0.77350    0.27350    0.83820   1.00
C1       0.75000    0.25000    0.64480   1.00
C1       0.75000    0.14480    0.75000   1.00
C1       0.85520    0.25000    0.75000   1.00
C1       0.64480    0.25000    0.75000   1.00
C1       0.75000    0.35520    0.75000   1.00
C1       0.75000    0.25000    0.85520   1.00
O1       0.25000    0.75000    0.75000   1.00
Zn1      0.28280    0.71720    0.71720   1.00
Zn1      0.21720    0.78280    0.71720   1.00
Zn1      0.21720    0.71720    0.78280   1.00
Zn1      0.28280    0.78280    0.78280   1.00
O2       0.27350    0.72650    0.66180   1.00
O2       0.27350    0.66180    0.72650   1.00
O2       0.33820    0.72650    0.72650   1.00
O2       0.22650    0.77350    0.66180   1.00
O2       0.16180    0.77350    0.72650   1.00
O2       0.22650    0.83820    0.72650   1.00
O2       0.22650    0.66180    0.77350   1.00
O2       0.16180    0.72650    0.77350   1.00
O2       0.22650    0.72650    0.83820   1.00
O2       0.33820    0.77350    0.77350   1.00
O2       0.27350    0.83820    0.77350   1.00
O2       0.27350    0.77350    0.83820   1.00
C1       0.25000    0.75000    0.64480   1.00
C1       0.25000    0.64480    0.75000   1.00
C1       0.35520    0.75000    0.75000   1.00
C1       0.14480    0.75000    0.75000   1.00
C1       0.25000    0.85520    0.75000   1.00
C1       0.25000    0.75000    0.85520   1.00
C4       0.74992    0.74982    0.97915   1.00
C4       0.75008    0.75018    1.02085   1.00
C3a      0.75981    0.71564    0.95746   1.00
C3       0.71863    0.73454    1.04232   1.00
C3       0.73979    0.78345    0.95768   1.00
C3a      0.78176    0.76637    1.04254   1.00
C2       0.74992    0.75003    0.89488   1.00
C2       0.74993    0.75004    1.10512   1.00
C3       0.75973    0.71632    0.91595   1.00
C3       0.71865    0.73438    1.08363   1.00
C3       0.73992    0.78354    0.91637   1.00
C3       0.78121    0.76597    1.08405   1.00
C5       0.77120    0.67810    0.97772   1.00
H1       0.69405    0.72199    1.02691   1.00
H1       0.76746    0.69032    0.89979   1.00
H1       0.69406    0.72190    1.09901   1.00
H1       0.73219    0.81002    0.90099   1.00
H1       0.80545    0.77813    1.10021   1.00
C5       0.81693    0.78377    1.02228   1.00
H1       0.73211    0.80996    0.97309   1.00
H2       0.84220    0.78423    1.04256   1.00
H2       0.82582    0.76513    0.99731   1.00
H2       0.78817    0.65936    0.95744   1.00
H2       0.79088    0.68437    1.00269   1.00
N1       0.80867    0.82336    1.00857   1.00
C6       0.80159    0.85465    1.03073   1.00
C6       0.80786    0.83537    0.97154   1.00
C6       0.79567    0.88695    1.00759   1.00
C6       0.79967    0.87469    0.96995   1.00
H3       0.80042    0.85412    1.06197   1.00
H3       0.81263    0.81665    0.94700   1.00
H3       0.78920    0.91618    1.01713   1.00
H3       0.79689    0.89244    0.94425   1.00
N1       0.73669    0.65701    0.99143   1.00
C6       0.72739    0.64938    1.02846   1.00
C6       0.70904    0.64075    0.96927   1.00
C6       0.69312    0.62843    1.03005   1.00
C6       0.68144    0.62295    0.99241   1.00
H3       0.74429    0.65872    1.05300   1.00
H3       0.70862    0.64197    0.93803   1.00
H3       0.67827    0.61831    1.05575   1.00
H3       0.65571    0.60766    0.98287   1.00
C4       0.74982    0.97915    0.74992   1.00
C4       0.75018    1.02085    0.75008   1.00
C3a      0.71564    0.95746    0.75981   1.00
C3       0.73454    1.04232    0.71863   1.00
C3       0.78345    0.95768    0.73979   1.00
C3a      0.76637    1.04254    0.78176   1.00
C2       0.75003    0.89488    0.74992   1.00
C2       0.75004    1.10512    0.74993   1.00
C3       0.71632    0.91595    0.75973   1.00
C3       0.73438    1.08363    0.71865   1.00
C3       0.78354    0.91637    0.73992   1.00
C3       0.76597    1.08405    0.78121   1.00
C5       0.67810    0.97772    0.77120   1.00
H1       0.72199    1.02691    0.69405   1.00
H1       0.69032    0.89979    0.76746   1.00
H1       0.72190    1.09901    0.69406   1.00
H1       0.81002    0.90099    0.73219   1.00
H1       0.77813    1.10021    0.80545   1.00
C5       0.78377    1.02228    0.81693   1.00
H1       0.80996    0.97309    0.73211   1.00
H2       0.78423    1.04256    0.84220   1.00
H2       0.76513    0.99731    0.82582   1.00
H2       0.65936    0.95744    0.78817   1.00
H2       0.68437    1.00269    0.79088   1.00
N1       0.82336    1.00857    0.80867   1.00
C6       0.85465    1.03073    0.80159   1.00
C6       0.83537    0.97154    0.80786   1.00
C6       0.88695    1.00759    0.79567   1.00
C6       0.87469    0.96995    0.79967   1.00
H3       0.85412    1.06197    0.80042   1.00
H3       0.81665    0.94700    0.81263   1.00
H3       0.91618    1.01713    0.78920   1.00
H3       0.89244    0.94425    0.79689   1.00
N1       0.65701    0.99143    0.73669   1.00
C6       0.64938    1.02846    0.72739   1.00
C6       0.64075    0.96927    0.70904   1.00
C6       0.62843    1.03005    0.69312   1.00
C6       0.62295    0.99241    0.68144   1.00
H3       0.65872    1.05300    0.74429   1.00
H3       0.64197    0.93803    0.70862   1.00
H3       0.61831    1.05575    0.67827   1.00
H3       0.60766    0.98287    0.65571   1.00
C4       0.52085    0.74992    0.75018   1.00
C4       0.47915    0.75008    0.74982   1.00
C3a      0.54254    0.75981    0.78436   1.00
C3       0.45768    0.71863    0.76546   1.00
C3       0.54232    0.73979    0.71655   1.00
C3a      0.45746    0.78176    0.73363   1.00
C2       0.60512    0.74992    0.74997   1.00
C2       0.39488    0.74993    0.74996   1.00
C3       0.58405    0.75973    0.78368   1.00
C3       0.41637    0.71865    0.76562   1.00
C3       0.58363    0.73992    0.71646   1.00
C3       0.41595    0.78121    0.73403   1.00
C5       0.52228    0.77120    0.82190   1.00
H1       0.47309    0.69405    0.77801   1.00
H1       0.60021    0.76746    0.80968   1.00
H1       0.40099    0.69406    0.77810   1.00
H1       0.59901    0.73219    0.68998   1.00
H1       0.39979    0.80545    0.72187   1.00
C5       0.47772    0.81693    0.71623   1.00
H1       0.52691    0.73211    0.69004   1.00
H2       0.45744    0.84220    0.71577   1.00
H2       0.50269    0.82582    0.73487   1.00
H2       0.54256    0.78817    0.84064   1.00
H2       0.49731    0.79088    0.81563   1.00
N1       0.49143    0.80867    0.67664   1.00
C6       0.46927    0.80159    0.64535   1.00
C6       0.52846    0.80786    0.66463   1.00
C6       0.49241    0.79567    0.61305   1.00
C6       0.53005    0.79967    0.62531   1.00
H3       0.43803    0.80042    0.64588   1.00
H3       0.55300    0.81263    0.68335   1.00
H3       0.48287    0.78920    0.58382   1.00
H3       0.55575    0.79689    0.60756   1.00
N1       0.50857    0.73669    0.84299   1.00
C6       0.47154    0.72739    0.85062   1.00
C6       0.53073    0.70904    0.85925   1.00
C6       0.46995    0.69312    0.87157   1.00
C6       0.50759    0.68144    0.87705   1.00
H3       0.44700    0.74429    0.84128   1.00
H3       0.56197    0.70862    0.85803   1.00
H3       0.44425    0.67827    0.88169   1.00
H3       0.51713    0.65571    0.89234   1.00
C4       0.97915    0.74992    0.74982   1.00
C4       1.02085    0.75008    0.75018   1.00
C3a      0.95746    0.75981    0.71564   1.00
C3       1.04232    0.71863    0.73454   1.00
C3       0.95768    0.73979    0.78345   1.00
C3a      1.04254    0.78176    0.76637   1.00
C2       0.89488    0.74992    0.75003   1.00
C2       1.10512    0.74993    0.75004   1.00
C3       0.91595    0.75973    0.71632   1.00
C3       1.08363    0.71865    0.73438   1.00
C3       0.91637    0.73992    0.78354   1.00
C3       1.08405    0.78121    0.76597   1.00
C5       0.97772    0.77120    0.67810   1.00
H1       1.02691    0.69405    0.72199   1.00
H1       0.89979    0.76746    0.69032   1.00
H1       1.09901    0.69406    0.72190   1.00
H1       0.90099    0.73219    0.81002   1.00
H1       1.10021    0.80545    0.77813   1.00
C5       1.02228    0.81693    0.78377   1.00
H1       0.97309    0.73211    0.80996   1.00
H2       1.04256    0.84220    0.78423   1.00
H2       0.99731    0.82582    0.76513   1.00
H2       0.95744    0.78817    0.65936   1.00
H2       1.00269    0.79088    0.68437   1.00
N1       1.00857    0.80867    0.82336   1.00
C6       1.03073    0.80159    0.85465   1.00
C6       0.97154    0.80786    0.83537   1.00
C6       1.00759    0.79567    0.88695   1.00
C6       0.96995    0.79967    0.87469   1.00
H3       1.06197    0.80042    0.85412   1.00
H3       0.94700    0.81263    0.81665   1.00
H3       1.01713    0.78920    0.91618   1.00
H3       0.94425    0.79689    0.89244   1.00
N1       0.99143    0.73669    0.65701   1.00
C6       1.02846    0.72739    0.64938   1.00
C6       0.96927    0.70904    0.64075   1.00
C6       1.03005    0.69312    0.62843   1.00
C6       0.99241    0.68144    0.62295   1.00
H3       1.05300    0.74429    0.65872   1.00
H3       0.93803    0.70862    0.64197   1.00
H3       1.05575    0.67827    0.61831   1.00
H3       0.98287    0.65571    0.60766   1.00
C4       0.75018    0.52085    0.74992   1.00
C4       0.74982    0.47915    0.75008   1.00
C3a      0.78436    0.54254    0.75981   1.00
C3       0.76546    0.45768    0.71863   1.00
C3       0.71655    0.54232    0.73979   1.00
C3a      0.73363    0.45746    0.78176   1.00
C2       0.74997    0.60512    0.74992   1.00
C2       0.74996    0.39488    0.74993   1.00
C3       0.78368    0.58405    0.75973   1.00
C3       0.76562    0.41637    0.71865   1.00
C3       0.71646    0.58363    0.73992   1.00
C3       0.73403    0.41595    0.78121   1.00
C5       0.82190    0.52228    0.77120   1.00
H1       0.77801    0.47309    0.69405   1.00
H1       0.80968    0.60021    0.76746   1.00
H1       0.77810    0.40099    0.69406   1.00
H1       0.68998    0.59901    0.73219   1.00
H1       0.72187    0.39979    0.80545   1.00
C5       0.71623    0.47772    0.81693   1.00
H1       0.69004    0.52691    0.73211   1.00
H2       0.71577    0.45744    0.84220   1.00
H2       0.73487    0.50269    0.82582   1.00
H2       0.84064    0.54256    0.78817   1.00
H2       0.81563    0.49731    0.79088   1.00
N1       0.67664    0.49143    0.80867   1.00
C6       0.64535    0.46927    0.80159   1.00
C6       0.66463    0.52846    0.80786   1.00
C6       0.61305    0.49241    0.79567   1.00
C6       0.62531    0.53005    0.79967   1.00
H3       0.64588    0.43803    0.80042   1.00
H3       0.68335    0.55300    0.81263   1.00
H3       0.58382    0.48287    0.78920   1.00
H3       0.60756    0.55575    0.79689   1.00
N1       0.84299    0.50857    0.73669   1.00
C6       0.85062    0.47154    0.72739   1.00
C6       0.85925    0.53073    0.70904   1.00
C6       0.87157    0.46995    0.69312   1.00
C6       0.87705    0.50759    0.68144   1.00
H3       0.84128    0.44700    0.74429   1.00
H3       0.85803    0.56197    0.70862   1.00
H3       0.88169    0.44425    0.67827   1.00
H3       0.89234    0.51713    0.65571   1.00
C4       0.74992    0.75018    0.52085   1.00
C4       0.75008    0.74982    0.47915   1.00
C3a      0.75981    0.78436    0.54254   1.00
C3       0.71863    0.76546    0.45768   1.00
C3       0.73979    0.71655    0.54232   1.00
C3a      0.78176    0.73363    0.45746   1.00
C2       0.74992    0.74997    0.60512   1.00
C2       0.74993    0.74996    0.39488   1.00
C3       0.75973    0.78368    0.58405   1.00
C3       0.71865    0.76562    0.41637   1.00
C3       0.73992    0.71646    0.58363   1.00
C3       0.78121    0.73403    0.41595   1.00
C5       0.77120    0.82190    0.52228   1.00
H1       0.69405    0.77801    0.47309   1.00
H1       0.76746    0.80968    0.60021   1.00
H1       0.69406    0.77810    0.40099   1.00
H1       0.73219    0.68998    0.59901   1.00
H1       0.80545    0.72187    0.39979   1.00
C5       0.81693    0.71623    0.47772   1.00
H1       0.73211    0.69004    0.52691   1.00
H2       0.84220    0.71577    0.45744   1.00
H2       0.82582    0.73487    0.50269   1.00
H2       0.78817    0.84064    0.54256   1.00
H2       0.79088    0.81563    0.49731   1.00
N1       0.80867    0.67664    0.49143   1.00
C6       0.80159    0.64535    0.46927   1.00
C6       0.80786    0.66463    0.52846   1.00
C6       0.79567    0.61305    0.49241   1.00
C6       0.79967    0.62531    0.53005   1.00
H3       0.80042    0.64588    0.43803   1.00
H3       0.81263    0.68335    0.55300   1.00
H3       0.78920    0.58382    0.48287   1.00
H3       0.79689    0.60756    0.55575   1.00
N1       0.73669    0.84299    0.50857   1.00
C6       0.72739    0.85062    0.47154   1.00
C6       0.70904    0.85925    0.53073   1.00
C6       0.69312    0.87157    0.46995   1.00
C6       0.68144    0.87705    0.50759   1.00
H3       0.74429    0.84128    0.44700   1.00
H3       0.70862    0.85803    0.56197   1.00
H3       0.67827    0.88169    0.44425   1.00
H3       0.65571    0.89234    0.51713   1.00
C4       0.24992    0.24982    0.97915   1.00
C4       0.25008    0.25018    1.02085   1.00
C3a      0.25981    0.21564    0.95746   1.00
C3       0.21863    0.23454    1.04232   1.00
C3       0.23979    0.28345    0.95768   1.00
C3a      0.28176    0.26637    1.04254   1.00
C2       0.24992    0.25003    0.89488   1.00
C2       0.24993    0.25004    1.10512   1.00
C3       0.25973    0.21632    0.91595   1.00
C3       0.21865    0.23438    1.08363   1.00
C3       0.23992    0.28354    0.91637   1.00
C3       0.28121    0.26597    1.08405   1.00
C5       0.27120    0.17810    0.97772   1.00
H1       0.19405    0.22199    1.02691   1.00
H1       0.26746    0.19032    0.89979   1.00
H1       0.19406    0.22190    1.09901   1.00
H1       0.23219    0.31002    0.90099   1.00
H1       0.30545    0.27813    1.10021   1.00
C5       0.31693    0.28377    1.02228   1.00
H1       0.23211    0.30996    0.97309   1.00
H2       0.34220    0.28423    1.04256   1.00
H2       0.32582    0.26513    0.99731   1.00
H2       0.28817    0.15936    0.95744   1.00
H2       0.29088    0.18437    1.00269   1.00
N1       0.30867    0.32336    1.00857   1.00
C6       0.30159    0.35465    1.03073   1.00
C6       0.30786    0.33537    0.97154   1.00
C6       0.29567    0.38695    1.00759   1.00
C6       0.29967    0.37469    0.96995   1.00
H3       0.30042    0.35412    1.06197   1.00
H3       0.31263    0.31665    0.94700   1.00
H3       0.28920    0.41618    1.01713   1.00
H3       0.29689    0.39244    0.94425   1.00
N1       0.23669    0.15701    0.99143   1.00
C6       0.22739    0.14938    1.02846   1.00
C6       0.20904    0.14075    0.96927   1.00
C6       0.19312    0.12843    1.03005   1.00
C6       0.18144    0.12295    0.99241   1.00
H3       0.24429    0.15872    1.05300   1.00
H3       0.20862    0.14197    0.93803   1.00
H3       0.17827    0.11831    1.05575   1.00
H3       0.15571    0.10766    0.98287   1.00
C4       0.24982    0.47915    0.74992   1.00
C4       0.25018    0.52085    0.75008   1.00
C3a      0.21564    0.45746    0.75981   1.00
C3       0.23454    0.54232    0.71863   1.00
C3       0.28345    0.45768    0.73979   1.00
C3a      0.26637    0.54254    0.78176   1.00
C2       0.25003    0.39488    0.74992   1.00
C2       0.25004    0.60512    0.74993   1.00
C3       0.21632    0.41595    0.75973   1.00
C3       0.23438    0.58363    0.71865   1.00
C3       0.28354    0.41637    0.73992   1.00
C3       0.26597    0.58405    0.78121   1.00
C5       0.17810    0.47772    0.77120   1.00
H1       0.22199    0.52691    0.69405   1.00
H1       0.19032    0.39979    0.76746   1.00
H1       0.22190    0.59901    0.69406   1.00
H1       0.31002    0.40099    0.73219   1.00
H1       0.27813    0.60021    0.80545   1.00
C5       0.28377    0.52228    0.81693   1.00
H1       0.30996    0.47309    0.73211   1.00
H2       0.28423    0.54256    0.84220   1.00
H2       0.26513    0.49731    0.82582   1.00
H2       0.15936    0.45744    0.78817   1.00
H2       0.18437    0.50269    0.79088   1.00
N1       0.32336    0.50857    0.80867   1.00
C6       0.35465    0.53073    0.80159   1.00
C6       0.33537    0.47154    0.80786   1.00
C6       0.38695    0.50759    0.79567   1.00
C6       0.37469    0.46995    0.79967   1.00
H3       0.35412    0.56197    0.80042   1.00
H3       0.31665    0.44700    0.81263   1.00
H3       0.41618    0.51713    0.78920   1.00
H3       0.39244    0.44425    0.79689   1.00
N1       0.15701    0.49143    0.73669   1.00
C6       0.14938    0.52846    0.72739   1.00
C6       0.14075    0.46927    0.70904   1.00
C6       0.12843    0.53005    0.69312   1.00
C6       0.12295    0.49241    0.68144   1.00
H3       0.15872    0.55300    0.74429   1.00
H3       0.14197    0.43803    0.70862   1.00
H3       0.11831    0.55575    0.67827   1.00
H3       0.10766    0.48287    0.65571   1.00
C4       0.02085    0.24992    0.75018   1.00
C4       -0.02085   0.25008    0.74982   1.00
C3a      0.04254    0.25981    0.78436   1.00
C3       -0.04232   0.21863    0.76546   1.00
C3       0.04232    0.23979    0.71655   1.00
C3a      -0.04254   0.28176    0.73363   1.00
C2       0.10512    0.24992    0.74997   1.00
C2       -0.10512   0.24993    0.74996   1.00
C3       0.08405    0.25973    0.78368   1.00
C3       -0.08363   0.21865    0.76562   1.00
C3       0.08363    0.23992    0.71646   1.00
C3       -0.08405   0.28121    0.73403   1.00
C5       0.02228    0.27120    0.82190   1.00
H1       -0.02691   0.19405    0.77801   1.00
H1       0.10021    0.26746    0.80968   1.00
H1       -0.09901   0.19406    0.77810   1.00
H1       0.09901    0.23219    0.68998   1.00
H1       -0.10021   0.30545    0.72187   1.00
C5       -0.02228   0.31693    0.71623   1.00
H1       0.02691    0.23211    0.69004   1.00
H2       -0.04256   0.34220    0.71577   1.00
H2       0.00269    0.32582    0.73487   1.00
H2       0.04256    0.28817    0.84064   1.00
H2       -0.00269   0.29088    0.81563   1.00
N1       -0.00857   0.30867    0.67664   1.00
C6       -0.03073   0.30159    0.64535   1.00
C6       0.02846    0.30786    0.66463   1.00
C6       -0.00759   0.29567    0.61305   1.00
C6       0.03005    0.29967    0.62531   1.00
H3       -0.06197   0.30042    0.64588   1.00
H3       0.05300    0.31263    0.68335   1.00
H3       -0.01713   0.28920    0.58382   1.00
H3       0.05575    0.29689    0.60756   1.00
N1       0.00857    0.23669    0.84299   1.00
C6       -0.02846   0.22739    0.85062   1.00
C6       0.03073    0.20904    0.85925   1.00
C6       -0.03005   0.19312    0.87157   1.00
C6       0.00759    0.18144    0.87705   1.00
H3       -0.05300   0.24429    0.84128   1.00
H3       0.06197    0.20862    0.85803   1.00
H3       -0.05575   0.17827    0.88169   1.00
H3       0.01713    0.15571    0.89234   1.00
C4       0.47915    0.24992    0.74982   1.00
C4       0.52085    0.25008    0.75018   1.00
C3a      0.45746    0.25981    0.71564   1.00
C3       0.54232    0.21863    0.73454   1.00
C3       0.45768    0.23979    0.78345   1.00
C3a      0.54254    0.28176    0.76637   1.00
C2       0.39488    0.24992    0.75003   1.00
C2       0.60512    0.24993    0.75004   1.00
C3       0.41595    0.25973    0.71632   1.00
C3       0.58363    0.21865    0.73438   1.00
C3       0.41637    0.23992    0.78354   1.00
C3       0.58405    0.28121    0.76597   1.00
C5       0.47772    0.27120    0.67810   1.00
H1       0.52691    0.19405    0.72199   1.00
H1       0.39979    0.26746    0.69032   1.00
H1       0.59901    0.19406    0.72190   1.00
H1       0.40099    0.23219    0.81002   1.00
H1       0.60021    0.30545    0.77813   1.00
C5       0.52228    0.31693    0.78377   1.00
H1       0.47309    0.23211    0.80996   1.00
H2       0.54256    0.34220    0.78423   1.00
H2       0.49731    0.32582    0.76513   1.00
H2       0.45744    0.28817    0.65936   1.00
H2       0.50269    0.29088    0.68437   1.00
N1       0.50857    0.30867    0.82336   1.00
C6       0.53073    0.30159    0.85465   1.00
C6       0.47154    0.30786    0.83537   1.00
C6       0.50759    0.29567    0.88695   1.00
C6       0.46995    0.29967    0.87469   1.00
H3       0.56197    0.30042    0.85412   1.00
H3       0.44700    0.31263    0.81665   1.00
H3       0.51713    0.28920    0.91618   1.00
H3       0.44425    0.29689    0.89244   1.00
N1       0.49143    0.23669    0.65701   1.00
C6       0.52846    0.22739    0.64938   1.00
C6       0.46927    0.20904    0.64075   1.00
C6       0.53005    0.19312    0.62843   1.00
C6       0.49241    0.18144    0.62295   1.00
H3       0.55300    0.24429    0.65872   1.00
H3       0.43803    0.20862    0.64197   1.00
H3       0.55575    0.17827    0.61831   1.00
H3       0.48287    0.15571    0.60766   1.00
C4       0.25018    0.02085    0.74992   1.00
C4       0.24982    -0.02085   0.75008   1.00
C3a      0.28436    0.04254    0.75981   1.00
C3       0.26546    -0.04232   0.71863   1.00
C3       0.21655    0.04232    0.73979   1.00
C3a      0.23363    -0.04254   0.78176   1.00
C2       0.24997    0.10512    0.74992   1.00
C2       0.24996    -0.10512   0.74993   1.00
C3       0.28368    0.08405    0.75973   1.00
C3       0.26562    -0.08363   0.71865   1.00
C3       0.21646    0.08363    0.73992   1.00
C3       0.23403    -0.08405   0.78121   1.00
C5       0.32190    0.02228    0.77120   1.00
H1       0.27801    -0.02691   0.69405   1.00
H1       0.30968    0.10021    0.76746   1.00
H1       0.27810    -0.09901   0.69406   1.00
H1       0.18998    0.09901    0.73219   1.00
H1       0.22187    -0.10021   0.80545   1.00
C5       0.21623    -0.02228   0.81693   1.00
H1       0.19004    0.02691    0.73211   1.00
H2       0.21577    -0.04256   0.84220   1.00
H2       0.23487    0.00269    0.82582   1.00
H2       0.34064    0.04256    0.78817   1.00
H2       0.31563    -0.00269   0.79088   1.00
N1       0.17664    -0.00857   0.80867   1.00
C6       0.14535    -0.03073   0.80159   1.00
C6       0.16463    0.02846    0.80786   1.00
C6       0.11305    -0.00759   0.79567   1.00
C6       0.12531    0.03005    0.79967   1.00
H3       0.14588    -0.06197   0.80042   1.00
H3       0.18335    0.05300    0.81263   1.00
H3       0.08382    -0.01713   0.78920   1.00
H3       0.10756    0.05575    0.79689   1.00
N1       0.34299    0.00857    0.73669   1.00
C6       0.35062    -0.02846   0.72739   1.00
C6       0.35925    0.03073    0.70904   1.00
C6       0.37157    -0.03005   0.69312   1.00
C6       0.37705    0.00759    0.68144   1.00
H3       0.34128    -0.05300   0.74429   1.00
H3       0.35803    0.06197    0.70862   1.00
H3       0.38169    -0.05575   0.67827   1.00
H3       0.39234    0.01713    0.65571   1.00
C4       0.24992    0.25018    0.52085   1.00
C4       0.25008    0.24982    0.47915   1.00
C3a      0.25981    0.28436    0.54254   1.00
C3       0.21863    0.26546    0.45768   1.00
C3       0.23979    0.21655    0.54232   1.00
C3a      0.28176    0.23363    0.45746   1.00
C2       0.24992    0.24997    0.60512   1.00
C2       0.24993    0.24996    0.39488   1.00
C3       0.25973    0.28368    0.58405   1.00
C3       0.21865    0.26562    0.41637   1.00
C3       0.23992    0.21646    0.58363   1.00
C3       0.28121    0.23403    0.41595   1.00
C5       0.27120    0.32190    0.52228   1.00
H1       0.19405    0.27801    0.47309   1.00
H1       0.26746    0.30968    0.60021   1.00
H1       0.19406    0.27810    0.40099   1.00
H1       0.23219    0.18998    0.59901   1.00
H1       0.30545    0.22187    0.39979   1.00
C5       0.31693    0.21623    0.47772   1.00
H1       0.23211    0.19004    0.52691   1.00
H2       0.34220    0.21577    0.45744   1.00
H2       0.32582    0.23487    0.50269   1.00
H2       0.28817    0.34064    0.54256   1.00
H2       0.29088    0.31563    0.49731   1.00
N1       0.30867    0.17664    0.49143   1.00
C6       0.30159    0.14535    0.46927   1.00
C6       0.30786    0.16463    0.52846   1.00
C6       0.29567    0.11305    0.49241   1.00
C6       0.29967    0.12531    0.53005   1.00
H3       0.30042    0.14588    0.43803   1.00
H3       0.31263    0.18335    0.55300   1.00
H3       0.28920    0.08382    0.48287   1.00
H3       0.29689    0.10756    0.55575   1.00
N1       0.23669    0.34299    0.50857   1.00
C6       0.22739    0.35062    0.47154   1.00
C6       0.20904    0.35925    0.53073   1.00
C6       0.19312    0.37157    0.46995   1.00
C6       0.18144    0.37705    0.50759   1.00
H3       0.24429    0.34128    0.44700   1.00
H3       0.20862    0.35803    0.56197   1.00
H3       0.17827    0.38169    0.44425   1.00
H3       0.15571    0.39234    0.51713   1.00
C4       0.24992    0.74982    0.47915   1.00
C4       0.25008    0.75018    0.52085   1.00
C3a      0.25981    0.71564    0.45746   1.00
C3       0.21863    0.73454    0.54232   1.00
C3       0.23979    0.78345    0.45768   1.00
C3a      0.28176    0.76637    0.54254   1.00
C2       0.24992    0.75003    0.39488   1.00
C2       0.24993    0.75004    0.60512   1.00
C3       0.25973    0.71632    0.41595   1.00
C3       0.21865    0.73438    0.58363   1.00
C3       0.23992    0.78354    0.41637   1.00
C3       0.28121    0.76597    0.58405   1.00
C5       0.27120    0.67810    0.47772   1.00
H1       0.19405    0.72199    0.52691   1.00
H1       0.26746    0.69032    0.39979   1.00
H1       0.19406    0.72190    0.59901   1.00
H1       0.23219    0.81002    0.40099   1.00
H1       0.30545    0.77813    0.60021   1.00
C5       0.31693    0.78377    0.52228   1.00
H1       0.23211    0.80996    0.47309   1.00
H2       0.34220    0.78423    0.54256   1.00
H2       0.32582    0.76513    0.49731   1.00
H2       0.28817    0.65936    0.45744   1.00
H2       0.29088    0.68437    0.50269   1.00
N1       0.30867    0.82336    0.50857   1.00
C6       0.30159    0.85465    0.53073   1.00
C6       0.30786    0.83537    0.47154   1.00
C6       0.29567    0.88695    0.50759   1.00
C6       0.29967    0.87469    0.46995   1.00
H3       0.30042    0.85412    0.56197   1.00
H3       0.31263    0.81665    0.44700   1.00
H3       0.28920    0.91618    0.51713   1.00
H3       0.29689    0.89244    0.44425   1.00
N1       0.23669    0.65701    0.49143   1.00
C6       0.22739    0.64938    0.52846   1.00
C6       0.20904    0.64075    0.46927   1.00
C6       0.19312    0.62843    0.53005   1.00
C6       0.18144    0.62295    0.49241   1.00
H3       0.24429    0.65872    0.55300   1.00
H3       0.20862    0.64197    0.43803   1.00
H3       0.17827    0.61831    0.55575   1.00
H3       0.15571    0.60766    0.48287   1.00
C4       0.24982    0.97915    0.24992   1.00
C4       0.25018    1.02085    0.25008   1.00
C3a      0.21564    0.95746    0.25981   1.00
C3       0.23454    1.04232    0.21863   1.00
C3       0.28345    0.95768    0.23979   1.00
C3a      0.26637    1.04254    0.28176   1.00
C2       0.25003    0.89488    0.24992   1.00
C2       0.25004    1.10512    0.24993   1.00
C3       0.21632    0.91595    0.25973   1.00
C3       0.23438    1.08363    0.21865   1.00
C3       0.28354    0.91637    0.23992   1.00
C3       0.26597    1.08405    0.28121   1.00
C5       0.17810    0.97772    0.27120   1.00
H1       0.22199    1.02691    0.19405   1.00
H1       0.19032    0.89979    0.26746   1.00
H1       0.22190    1.09901    0.19406   1.00
H1       0.31002    0.90099    0.23219   1.00
H1       0.27813    1.10021    0.30545   1.00
C5       0.28377    1.02228    0.31693   1.00
H1       0.30996    0.97309    0.23211   1.00
H2       0.28423    1.04256    0.34220   1.00
H2       0.26513    0.99731    0.32582   1.00
H2       0.15936    0.95744    0.28817   1.00
H2       0.18437    1.00269    0.29088   1.00
N1       0.32336    1.00857    0.30867   1.00
C6       0.35465    1.03073    0.30159   1.00
C6       0.33537    0.97154    0.30786   1.00
C6       0.38695    1.00759    0.29567   1.00
C6       0.37469    0.96995    0.29967   1.00
H3       0.35412    1.06197    0.30042   1.00
H3       0.31665    0.94700    0.31263   1.00
H3       0.41618    1.01713    0.28920   1.00
H3       0.39244    0.94425    0.29689   1.00
N1       0.15701    0.99143    0.23669   1.00
C6       0.14938    1.02846    0.22739   1.00
C6       0.14075    0.96927    0.20904   1.00
C6       0.12843    1.03005    0.19312   1.00
C6       0.12295    0.99241    0.18144   1.00
H3       0.15872    1.05300    0.24429   1.00
H3       0.14197    0.93803    0.20862   1.00
H3       0.11831    1.05575    0.17827   1.00
H3       0.10766    0.98287    0.15571   1.00
C4       0.02085    0.74992    0.25018   1.00
C4       -0.02085   0.75008    0.24982   1.00
C3a      0.04254    0.75981    0.28436   1.00
C3       -0.04232   0.71863    0.26546   1.00
C3       0.04232    0.73979    0.21655   1.00
C3a      -0.04254   0.78176    0.23363   1.00
C2       0.10512    0.74992    0.24997   1.00
C2       -0.10512   0.74993    0.24996   1.00
C3       0.08405    0.75973    0.28368   1.00
C3       -0.08363   0.71865    0.26562   1.00
C3       0.08363    0.73992    0.21646   1.00
C3       -0.08405   0.78121    0.23403   1.00
C5       0.02228    0.77120    0.32190   1.00
H1       -0.02691   0.69405    0.27801   1.00
H1       0.10021    0.76746    0.30968   1.00
H1       -0.09901   0.69406    0.27810   1.00
H1       0.09901    0.73219    0.18998   1.00
H1       -0.10021   0.80545    0.22187   1.00
C5       -0.02228   0.81693    0.21623   1.00
H1       0.02691    0.73211    0.19004   1.00
H2       -0.04256   0.84220    0.21577   1.00
H2       0.00269    0.82582    0.23487   1.00
H2       0.04256    0.78817    0.34064   1.00
H2       -0.00269   0.79088    0.31563   1.00
N1       -0.00857   0.80867    0.17664   1.00
C6       -0.03073   0.80159    0.14535   1.00
C6       0.02846    0.80786    0.16463   1.00
C6       -0.00759   0.79567    0.11305   1.00
C6       0.03005    0.79967    0.12531   1.00
H3       -0.06197   0.80042    0.14588   1.00
H3       0.05300    0.81263    0.18335   1.00
H3       -0.01713   0.78920    0.08382   1.00
H3       0.05575    0.79689    0.10756   1.00
N1       0.00857    0.73669    0.34299   1.00
C6       -0.02846   0.72739    0.35062   1.00
C6       0.03073    0.70904    0.35925   1.00
C6       -0.03005   0.69312    0.37157   1.00
C6       0.00759    0.68144    0.37705   1.00
H3       -0.05300   0.74429    0.34128   1.00
H3       0.06197    0.70862    0.35803   1.00
H3       -0.05575   0.67827    0.38169   1.00
H3       0.01713    0.65571    0.39234   1.00
C4       0.47915    0.74992    0.24982   1.00
C4       0.52085    0.75008    0.25018   1.00
C3a      0.45746    0.75981    0.21564   1.00
C3       0.54232    0.71863    0.23454   1.00
C3       0.45768    0.73979    0.28345   1.00
C3a      0.54254    0.78176    0.26637   1.00
C2       0.39488    0.74992    0.25003   1.00
C2       0.60512    0.74993    0.25004   1.00
C3       0.41595    0.75973    0.21632   1.00
C3       0.58363    0.71865    0.23438   1.00
C3       0.41637    0.73992    0.28354   1.00
C3       0.58405    0.78121    0.26597   1.00
C5       0.47772    0.77120    0.17810   1.00
H1       0.52691    0.69405    0.22199   1.00
H1       0.39979    0.76746    0.19032   1.00
H1       0.59901    0.69406    0.22190   1.00
H1       0.40099    0.73219    0.31002   1.00
H1       0.60021    0.80545    0.27813   1.00
C5       0.52228    0.81693    0.28377   1.00
H1       0.47309    0.73211    0.30996   1.00
H2       0.54256    0.84220    0.28423   1.00
H2       0.49731    0.82582    0.26513   1.00
H2       0.45744    0.78817    0.15936   1.00
H2       0.50269    0.79088    0.18437   1.00
N1       0.50857    0.80867    0.32336   1.00
C6       0.53073    0.80159    0.35465   1.00
C6       0.47154    0.80786    0.33537   1.00
C6       0.50759    0.79567    0.38695   1.00
C6       0.46995    0.79967    0.37469   1.00
H3       0.56197    0.80042    0.35412   1.00
H3       0.44700    0.81263    0.31665   1.00
H3       0.51713    0.78920    0.41618   1.00
H3       0.44425    0.79689    0.39244   1.00
N1       0.49143    0.73669    0.15701   1.00
C6       0.52846    0.72739    0.14938   1.00
C6       0.46927    0.70904    0.14075   1.00
C6       0.53005    0.69312    0.12843   1.00
C6       0.49241    0.68144    0.12295   1.00
H3       0.55300    0.74429    0.15872   1.00
H3       0.43803    0.70862    0.14197   1.00
H3       0.55575    0.67827    0.11831   1.00
H3       0.48287    0.65571    0.10766   1.00
C4       0.25018    0.52085    0.24992   1.00
C4       0.24982    0.47915    0.25008   1.00
C3a      0.28436    0.54254    0.25981   1.00
C3       0.26546    0.45768    0.21863   1.00
C3       0.21655    0.54232    0.23979   1.00
C3a      0.23363    0.45746    0.28176   1.00
C2       0.24997    0.60512    0.24992   1.00
C2       0.24996    0.39488    0.24993   1.00
C3       0.28368    0.58405    0.25973   1.00
C3       0.26562    0.41637    0.21865   1.00
C3       0.21646    0.58363    0.23992   1.00
C3       0.23403    0.41595    0.28121   1.00
C5       0.32190    0.52228    0.27120   1.00
H1       0.27801    0.47309    0.19405   1.00
H1       0.30968    0.60021    0.26746   1.00
H1       0.27810    0.40099    0.19406   1.00
H1       0.18998    0.59901    0.23219   1.00
H1       0.22187    0.39979    0.30545   1.00
C5       0.21623    0.47772    0.31693   1.00
H1       0.19004    0.52691    0.23211   1.00
H2       0.21577    0.45744    0.34220   1.00
H2       0.23487    0.50269    0.32582   1.00
H2       0.34064    0.54256    0.28817   1.00
H2       0.31563    0.49731    0.29088   1.00
N1       0.17664    0.49143    0.30867   1.00
C6       0.14535    0.46927    0.30159   1.00
C6       0.16463    0.52846    0.30786   1.00
C6       0.11305    0.49241    0.29567   1.00
C6       0.12531    0.53005    0.29967   1.00
H3       0.14588    0.43803    0.30042   1.00
H3       0.18335    0.55300    0.31263   1.00
H3       0.08382    0.48287    0.28920   1.00
H3       0.10756    0.55575    0.29689   1.00
N1       0.34299    0.50857    0.23669   1.00
C6       0.35062    0.47154    0.22739   1.00
C6       0.35925    0.53073    0.20904   1.00
C6       0.37157    0.46995    0.19312   1.00
C6       0.37705    0.50759    0.18144   1.00
H3       0.34128    0.44700    0.24429   1.00
H3       0.35803    0.56197    0.20862   1.00
H3       0.38169    0.44425    0.17827   1.00
H3       0.39234    0.51713    0.15571   1.00
C4       0.24992    0.75018    0.02085   1.00
C4       0.25008    0.74982    -0.02085   1.00
C3a      0.25981    0.78436    0.04254   1.00
C3       0.21863    0.76546    -0.04232   1.00
C3       0.23979    0.71655    0.04232   1.00
C3a      0.28176    0.73363    -0.04254   1.00
C2       0.24992    0.74997    0.10512   1.00
C2       0.24993    0.74996    -0.10512   1.00
C3       0.25973    0.78368    0.08405   1.00
C3       0.21865    0.76562    -0.08363   1.00
C3       0.23992    0.71646    0.08363   1.00
C3       0.28121    0.73403    -0.08405   1.00
C5       0.27120    0.82190    0.02228   1.00
H1       0.19405    0.77801    -0.02691   1.00
H1       0.26746    0.80968    0.10021   1.00
H1       0.19406    0.77810    -0.09901   1.00
H1       0.23219    0.68998    0.09901   1.00
H1       0.30545    0.72187    -0.10021   1.00
C5       0.31693    0.71623    -0.02228   1.00
H1       0.23211    0.69004    0.02691   1.00
H2       0.34220    0.71577    -0.04256   1.00
H2       0.32582    0.73487    0.00269   1.00
H2       0.28817    0.84064    0.04256   1.00
H2       0.29088    0.81563    -0.00269   1.00
N1       0.30867    0.67664    -0.00857   1.00
C6       0.30159    0.64535    -0.03073   1.00
C6       0.30786    0.66463    0.02846   1.00
C6       0.29567    0.61305    -0.00759   1.00
C6       0.29967    0.62531    0.03005   1.00
H3       0.30042    0.64588    -0.06197   1.00
H3       0.31263    0.68335    0.05300   1.00
H3       0.28920    0.58382    -0.01713   1.00
H3       0.29689    0.60756    0.05575   1.00
N1       0.23669    0.84299    0.00857   1.00
C6       0.22739    0.85062    -0.02846   1.00
C6       0.20904    0.85925    0.03073   1.00
C6       0.19312    0.87157    -0.03005   1.00
C6       0.18144    0.87705    0.00759   1.00
H3       0.24429    0.84128    -0.05300   1.00
H3       0.20862    0.85803    0.06197   1.00
H3       0.17827    0.88169    -0.05575   1.00
H3       0.15571    0.89234    0.01713   1.00
C4       0.74992    0.24982    0.47915   1.00
C4       0.75008    0.25018    0.52085   1.00
C3a      0.75981    0.21564    0.45746   1.00
C3       0.71863    0.23454    0.54232   1.00
C3       0.73979    0.28345    0.45768   1.00
C3a      0.78176    0.26637    0.54254   1.00
C2       0.74992    0.25003    0.39488   1.00
C2       0.74993    0.25004    0.60512   1.00
C3       0.75973    0.21632    0.41595   1.00
C3       0.71865    0.23438    0.58363   1.00
C3       0.73992    0.28354    0.41637   1.00
C3       0.78121    0.26597    0.58405   1.00
C5       0.77120    0.17810    0.47772   1.00
H1       0.69405    0.22199    0.52691   1.00
H1       0.76746    0.19032    0.39979   1.00
H1       0.69406    0.22190    0.59901   1.00
H1       0.73219    0.31002    0.40099   1.00
H1       0.80545    0.27813    0.60021   1.00
C5       0.81693    0.28377    0.52228   1.00
H1       0.73211    0.30996    0.47309   1.00
H2       0.84220    0.28423    0.54256   1.00
H2       0.82582    0.26513    0.49731   1.00
H2       0.78817    0.15936    0.45744   1.00
H2       0.79088    0.18437    0.50269   1.00
N1       0.80867    0.32336    0.50857   1.00
C6       0.80159    0.35465    0.53073   1.00
C6       0.80786    0.33537    0.47154   1.00
C6       0.79567    0.38695    0.50759   1.00
C6       0.79967    0.37469    0.46995   1.00
H3       0.80042    0.35412    0.56197   1.00
H3       0.81263    0.31665    0.44700   1.00
H3       0.78920    0.41618    0.51713   1.00
H3       0.79689    0.39244    0.44425   1.00
N1       0.73669    0.15701    0.49143   1.00
C6       0.72739    0.14938    0.52846   1.00
C6       0.70904    0.14075    0.46927   1.00
C6       0.69312    0.12843    0.53005   1.00
C6       0.68144    0.12295    0.49241   1.00
H3       0.74429    0.15872    0.55300   1.00
H3       0.70862    0.14197    0.43803   1.00
H3       0.67827    0.11831    0.55575   1.00
H3       0.65571    0.10766    0.48287   1.00
C4       0.74982    0.47915    0.24992   1.00
C4       0.75018    0.52085    0.25008   1.00
C3a      0.71564    0.45746    0.25981   1.00
C3       0.73454    0.54232    0.21863   1.00
C3       0.78345    0.45768    0.23979   1.00
C3a      0.76637    0.54254    0.28176   1.00
C2       0.75003    0.39488    0.24992   1.00
C2       0.75004    0.60512    0.24993   1.00
C3       0.71632    0.41595    0.25973   1.00
C3       0.73438    0.58363    0.21865   1.00
C3       0.78354    0.41637    0.23992   1.00
C3       0.76597    0.58405    0.28121   1.00
C5       0.67810    0.47772    0.27120   1.00
H1       0.72199    0.52691    0.19405   1.00
H1       0.69032    0.39979    0.26746   1.00
H1       0.72190    0.59901    0.19406   1.00
H1       0.81002    0.40099    0.23219   1.00
H1       0.77813    0.60021    0.30545   1.00
C5       0.78377    0.52228    0.31693   1.00
H1       0.80996    0.47309    0.23211   1.00
H2       0.78423    0.54256    0.34220   1.00
H2       0.76513    0.49731    0.32582   1.00
H2       0.65936    0.45744    0.28817   1.00
H2       0.68437    0.50269    0.29088   1.00
N1       0.82336    0.50857    0.30867   1.00
C6       0.85465    0.53073    0.30159   1.00
C6       0.83537    0.47154    0.30786   1.00
C6       0.88695    0.50759    0.29567   1.00
C6       0.87469    0.46995    0.29967   1.00
H3       0.85412    0.56197    0.30042   1.00
H3       0.81665    0.44700    0.31263   1.00
H3       0.91618    0.51713    0.28920   1.00
H3       0.89244    0.44425    0.29689   1.00
N1       0.65701    0.49143    0.23669   1.00
C6       0.64938    0.52846    0.22739   1.00
C6       0.64075    0.46927    0.20904   1.00
C6       0.62843    0.53005    0.19312   1.00
C6       0.62295    0.49241    0.18144   1.00
H3       0.65872    0.55300    0.24429   1.00
H3       0.64197    0.43803    0.20862   1.00
H3       0.61831    0.55575    0.17827   1.00
H3       0.60766    0.48287    0.15571   1.00
C4       0.52085    0.24992    0.25018   1.00
C4       0.47915    0.25008    0.24982   1.00
C3a      0.54254    0.25981    0.28436   1.00
C3       0.45768    0.21863    0.26546   1.00
C3       0.54232    0.23979    0.21655   1.00
C3a      0.45746    0.28176    0.23363   1.00
C2       0.60512    0.24992    0.24997   1.00
C2       0.39488    0.24993    0.24996   1.00
C3       0.58405    0.25973    0.28368   1.00
C3       0.41637    0.21865    0.26562   1.00
C3       0.58363    0.23992    0.21646   1.00
C3       0.41595    0.28121    0.23403   1.00
C5       0.52228    0.27120    0.32190   1.00
H1       0.47309    0.19405    0.27801   1.00
H1       0.60021    0.26746    0.30968   1.00
H1       0.40099    0.19406    0.27810   1.00
H1       0.59901    0.23219    0.18998   1.00
H1       0.39979    0.30545    0.22187   1.00
C5       0.47772    0.31693    0.21623   1.00
H1       0.52691    0.23211    0.19004   1.00
H2       0.45744    0.34220    0.21577   1.00
H2       0.50269    0.32582    0.23487   1.00
H2       0.54256    0.28817    0.34064   1.00
H2       0.49731    0.29088    0.31563   1.00
N1       0.49143    0.30867    0.17664   1.00
C6       0.46927    0.30159    0.14535   1.00
C6       0.52846    0.30786    0.16463   1.00
C6       0.49241    0.29567    0.11305   1.00
C6       0.53005    0.29967    0.12531   1.00
H3       0.43803    0.30042    0.14588   1.00
H3       0.55300    0.31263    0.18335   1.00
H3       0.48287    0.28920    0.08382   1.00
H3       0.55575    0.29689    0.10756   1.00
N1       0.50857    0.23669    0.34299   1.00
C6       0.47154    0.22739    0.35062   1.00
C6       0.53073    0.20904    0.35925   1.00
C6       0.46995    0.19312    0.37157   1.00
C6       0.50759    0.18144    0.37705   1.00
H3       0.44700    0.24429    0.34128   1.00
H3       0.56197    0.20862    0.35803   1.00
H3       0.44425    0.17827    0.38169   1.00
H3       0.51713    0.15571    0.39234   1.00
C4       0.97915    0.24992    0.24982   1.00
C4       1.02085    0.25008    0.25018   1.00
C3a      0.95746    0.25981    0.21564   1.00
C3       1.04232    0.21863    0.23454   1.00
C3       0.95768    0.23979    0.28345   1.00
C3a      1.04254    0.28176    0.26637   1.00
C2       0.89488    0.24992    0.25003   1.00
C2       1.10512    0.24993    0.25004   1.00
C3       0.91595    0.25973    0.21632   1.00
C3       1.08363    0.21865    0.23438   1.00
C3       0.91637    0.23992    0.28354   1.00
C3       1.08405    0.28121    0.26597   1.00
C5       0.97772    0.27120    0.17810   1.00
H1       1.02691    0.19405    0.22199   1.00
H1       0.89979    0.26746    0.19032   1.00
H1       1.09901    0.19406    0.22190   1.00
H1       0.90099    0.23219    0.31002   1.00
H1       1.10021    0.30545    0.27813   1.00
C5       1.02228    0.31693    0.28377   1.00
H1       0.97309    0.23211    0.30996   1.00
H2       1.04256    0.34220    0.28423   1.00
H2       0.99731    0.32582    0.26513   1.00
H2       0.95744    0.28817    0.15936   1.00
H2       1.00269    0.29088    0.18437   1.00
N1       1.00857    0.30867    0.32336   1.00
C6       1.03073    0.30159    0.35465   1.00
C6       0.97154    0.30786    0.33537   1.00
C6       1.00759    0.29567    0.38695   1.00
C6       0.96995    0.29967    0.37469   1.00
H3       1.06197    0.30042    0.35412   1.00
H3       0.94700    0.31263    0.31665   1.00
H3       1.01713    0.28920    0.41618   1.00
H3       0.94425    0.29689    0.39244   1.00
N1       0.99143    0.23669    0.15701   1.00
C6       1.02846    0.22739    0.14938   1.00
C6       0.96927    0.20904    0.14075   1.00
C6       1.03005    0.19312    0.12843   1.00
C6       0.99241    0.18144    0.12295   1.00
H3       1.05300    0.24429    0.15872   1.00
H3       0.93803    0.20862    0.14197   1.00
H3       1.05575    0.17827    0.11831   1.00
H3       0.98287    0.15571    0.10766   1.00
C4       0.75018    0.02085    0.24992   1.00
C4       0.74982    -0.02085   0.25008   1.00
C3a      0.78436    0.04254    0.25981   1.00
C3       0.76546    -0.04232   0.21863   1.00
C3       0.71655    0.04232    0.23979   1.00
C3a      0.73363    -0.04254   0.28176   1.00
C2       0.74997    0.10512    0.24992   1.00
C2       0.74996    -0.10512   0.24993   1.00
C3       0.78368    0.08405    0.25973   1.00
C3       0.76562    -0.08363   0.21865   1.00
C3       0.71646    0.08363    0.23992   1.00
C3       0.73403    -0.08405   0.28121   1.00
C5       0.82190    0.02228    0.27120   1.00
H1       0.77801    -0.02691   0.19405   1.00
H1       0.80968    0.10021    0.26746   1.00
H1       0.77810    -0.09901   0.19406   1.00
H1       0.68998    0.09901    0.23219   1.00
H1       0.72187    -0.10021   0.30545   1.00
C5       0.71623    -0.02228   0.31693   1.00
H1       0.69004    0.02691    0.23211   1.00
H2       0.71577    -0.04256   0.34220   1.00
H2       0.73487    0.00269    0.32582   1.00
H2       0.84064    0.04256    0.28817   1.00
H2       0.81563    -0.00269   0.29088   1.00
N1       0.67664    -0.00857   0.30867   1.00
C6       0.64535    -0.03073   0.30159   1.00
C6       0.66463    0.02846    0.30786   1.00
C6       0.61305    -0.00759   0.29567   1.00
C6       0.62531    0.03005    0.29967   1.00
H3       0.64588    -0.06197   0.30042   1.00
H3       0.68335    0.05300    0.31263   1.00
H3       0.58382    -0.01713   0.28920   1.00
H3       0.60756    0.05575    0.29689   1.00
N1       0.84299    0.00857    0.23669   1.00
C6       0.85062    -0.02846   0.22739   1.00
C6       0.85925    0.03073    0.20904   1.00
C6       0.87157    -0.03005   0.19312   1.00
C6       0.87705    0.00759    0.18144   1.00
H3       0.84128    -0.05300   0.24429   1.00
H3       0.85803    0.06197    0.20862   1.00
H3       0.88169    -0.05575   0.17827   1.00
H3       0.89234    0.01713    0.15571   1.00
C4       0.74992    0.25018    0.02085   1.00
C4       0.75008    0.24982    -0.02085   1.00
C3a      0.75981    0.28436    0.04254   1.00
C3       0.71863    0.26546    -0.04232   1.00
C3       0.73979    0.21655    0.04232   1.00
C3a      0.78176    0.23363    -0.04254   1.00
C2       0.74992    0.24997    0.10512   1.00
C2       0.74993    0.24996    -0.10512   1.00
C3       0.75973    0.28368    0.08405   1.00
C3       0.71865    0.26562    -0.08363   1.00
C3       0.73992    0.21646    0.08363   1.00
C3       0.78121    0.23403    -0.08405   1.00
C5       0.77120    0.32190    0.02228   1.00
H1       0.69405    0.27801    -0.02691   1.00
H1       0.76746    0.30968    0.10021   1.00
H1       0.69406    0.27810    -0.09901   1.00
H1       0.73219    0.18998    0.09901   1.00
H1       0.80545    0.22187    -0.10021   1.00
C5       0.81693    0.21623    -0.02228   1.00
H1       0.73211    0.19004    0.02691   1.00
H2       0.84220    0.21577    -0.04256   1.00
H2       0.82582    0.23487    0.00269   1.00
H2       0.78817    0.34064    0.04256   1.00
H2       0.79088    0.31563    -0.00269   1.00
N1       0.80867    0.17664    -0.00857   1.00
C6       0.80159    0.14535    -0.03073   1.00
C6       0.80786    0.16463    0.02846   1.00
C6       0.79567    0.11305    -0.00759   1.00
C6       0.79967    0.12531    0.03005   1.00
H3       0.80042    0.14588    -0.06197   1.00
H3       0.81263    0.18335    0.05300   1.00
H3       0.78920    0.08382    -0.01713   1.00
H3       0.79689    0.10756    0.05575   1.00
N1       0.73669    0.34299    0.00857   1.00
C6       0.72739    0.35062    -0.02846   1.00
C6       0.70904    0.35925    0.03073   1.00
C6       0.69312    0.37157    -0.03005   1.00
C6       0.68144    0.37705    0.00759   1.00
H3       0.74429    0.34128    -0.05300   1.00
H3       0.70862    0.35803    0.06197   1.00
H3       0.67827    0.38169    -0.05575   1.00
H3       0.65571    0.39234    0.01713   1.00
