data_IRMOF10_SG202_Ligand7_label_i.

_audit_creation_method             'generated by an auxiliary program of Tobunporous'

_symmetry_space_group_name_H-M     'P 1'
_symmetry_Int_Tables_number        1
_symmetry_cell_setting             triclinic

_cell_length_a                    34.2800
_cell_length_b                    34.2800
_cell_length_c                    34.2800
_cell_angle_alpha                 90.0000
_cell_angle_beta                  90.0000
_cell_angle_gamma                 90.0000

loop_
_atom_site_label
_atom_site_fract_x
_atom_site_fract_y
_atom_site_fract_z
_atom_site_occupancy
O1       0.75000    0.75000    0.75000   1.00
Zn1      0.71720    0.78280    0.78280   1.00
Zn1      0.78280    0.71720    0.78280   1.00
Zn1      0.78280    0.78280    0.71720   1.00
Zn1      0.71720    0.71720    0.71720   1.00
O2       0.72650    0.77350    0.83820   1.00
O2       0.72650    0.83820    0.77350   1.00
O2       0.66180    0.77350    0.77350   1.00
O2       0.77350    0.72650    0.83820   1.00
O2       0.83820    0.72650    0.77350   1.00
O2       0.77350    0.66180    0.77350   1.00
O2       0.77350    0.83820    0.72650   1.00
O2       0.83820    0.77350    0.72650   1.00
O2       0.77350    0.77350    0.66180   1.00
O2       0.66180    0.72650    0.72650   1.00
O2       0.72650    0.66180    0.72650   1.00
O2       0.72650    0.72650    0.66180   1.00
C1       0.75000    0.75000    0.85520   1.00
C1       0.75000    0.85520    0.75000   1.00
C1       0.64480    0.75000    0.75000   1.00
C1       0.85520    0.75000    0.75000   1.00
C1       0.75000    0.64480    0.75000   1.00
C1       0.75000    0.75000    0.64480   1.00
O1       0.25000    0.25000    0.75000   1.00
Zn1      0.21720    0.28280    0.78280   1.00
Zn1      0.28280    0.21720    0.78280   1.00
Zn1      0.28280    0.28280    0.71720   1.00
Zn1      0.21720    0.21720    0.71720   1.00
O2       0.22650    0.27350    0.83820   1.00
O2       0.22650    0.33820    0.77350   1.00
O2       0.16180    0.27350    0.77350   1.00
O2       0.27350    0.22650    0.83820   1.00
O2       0.33820    0.22650    0.77350   1.00
O2       0.27350    0.16180    0.77350   1.00
O2       0.27350    0.33820    0.72650   1.00
O2       0.33820    0.27350    0.72650   1.00
O2       0.27350    0.27350    0.66180   1.00
O2       0.16180    0.22650    0.72650   1.00
O2       0.22650    0.16180    0.72650   1.00
O2       0.22650    0.22650    0.66180   1.00
C1       0.25000    0.25000    0.85520   1.00
C1       0.25000    0.35520    0.75000   1.00
C1       0.14480    0.25000    0.75000   1.00
C1       0.35520    0.25000    0.75000   1.00
C1       0.25000    0.14480    0.75000   1.00
C1       0.25000    0.25000    0.64480   1.00
O1       0.25000    0.75000    0.25000   1.00
Zn1      0.21720    0.78280    0.28280   1.00
Zn1      0.28280    0.71720    0.28280   1.00
Zn1      0.28280    0.78280    0.21720   1.00
Zn1      0.21720    0.71720    0.21720   1.00
O2       0.22650    0.77350    0.33820   1.00
O2       0.22650    0.83820    0.27350   1.00
O2       0.16180    0.77350    0.27350   1.00
O2       0.27350    0.72650    0.33820   1.00
O2       0.33820    0.72650    0.27350   1.00
O2       0.27350    0.66180    0.27350   1.00
O2       0.27350    0.83820    0.22650   1.00
O2       0.33820    0.77350    0.22650   1.00
O2       0.27350    0.77350    0.16180   1.00
O2       0.16180    0.72650    0.22650   1.00
O2       0.22650    0.66180    0.22650   1.00
O2       0.22650    0.72650    0.16180   1.00
C1       0.25000    0.75000    0.35520   1.00
C1       0.25000    0.85520    0.25000   1.00
C1       0.14480    0.75000    0.25000   1.00
C1       0.35520    0.75000    0.25000   1.00
C1       0.25000    0.64480    0.25000   1.00
C1       0.25000    0.75000    0.14480   1.00
O1       0.75000    0.25000    0.25000   1.00
Zn1      0.71720    0.28280    0.28280   1.00
Zn1      0.78280    0.21720    0.28280   1.00
Zn1      0.78280    0.28280    0.21720   1.00
Zn1      0.71720    0.21720    0.21720   1.00
O2       0.72650    0.27350    0.33820   1.00
O2       0.72650    0.33820    0.27350   1.00
O2       0.66180    0.27350    0.27350   1.00
O2       0.77350    0.22650    0.33820   1.00
O2       0.83820    0.22650    0.27350   1.00
O2       0.77350    0.16180    0.27350   1.00
O2       0.77350    0.33820    0.22650   1.00
O2       0.83820    0.27350    0.22650   1.00
O2       0.77350    0.27350    0.16180   1.00
O2       0.66180    0.22650    0.22650   1.00
O2       0.72650    0.16180    0.22650   1.00
O2       0.72650    0.22650    0.16180   1.00
C1       0.75000    0.25000    0.35520   1.00
C1       0.75000    0.35520    0.25000   1.00
C1       0.64480    0.25000    0.25000   1.00
C1       0.85520    0.25000    0.25000   1.00
C1       0.75000    0.14480    0.25000   1.00
C1       0.75000    0.25000    0.14480   1.00
O1       0.25000    0.25000    0.25000   1.00
Zn1      0.28280    0.21720    0.21720   1.00
Zn1      0.21720    0.28280    0.21720   1.00
Zn1      0.21720    0.21720    0.28280   1.00
Zn1      0.28280    0.28280    0.28280   1.00
O2       0.27350    0.22650    0.16180   1.00
O2       0.27350    0.16180    0.22650   1.00
O2       0.33820    0.22650    0.22650   1.00
O2       0.22650    0.27350    0.16180   1.00
O2       0.16180    0.27350    0.22650   1.00
O2       0.22650    0.33820    0.22650   1.00
O2       0.22650    0.16180    0.27350   1.00
O2       0.16180    0.22650    0.27350   1.00
O2       0.22650    0.22650    0.33820   1.00
O2       0.33820    0.27350    0.27350   1.00
O2       0.27350    0.33820    0.27350   1.00
O2       0.27350    0.27350    0.33820   1.00
C1       0.25000    0.25000    0.14480   1.00
C1       0.25000    0.14480    0.25000   1.00
C1       0.35520    0.25000    0.25000   1.00
C1       0.14480    0.25000    0.25000   1.00
C1       0.25000    0.35520    0.25000   1.00
C1       0.25000    0.25000    0.35520   1.00
O1       0.75000    0.75000    0.25000   1.00
Zn1      0.78280    0.71720    0.21720   1.00
Zn1      0.71720    0.78280    0.21720   1.00
Zn1      0.71720    0.71720    0.28280   1.00
Zn1      0.78280    0.78280    0.28280   1.00
O2       0.77350    0.72650    0.16180   1.00
O2       0.77350    0.66180    0.22650   1.00
O2       0.83820    0.72650    0.22650   1.00
O2       0.72650    0.77350    0.16180   1.00
O2       0.66180    0.77350    0.22650   1.00
O2       0.72650    0.83820    0.22650   1.00
O2       0.72650    0.66180    0.27350   1.00
O2       0.66180    0.72650    0.27350   1.00
O2       0.72650    0.72650    0.33820   1.00
O2       0.83820    0.77350    0.27350   1.00
O2       0.77350    0.83820    0.27350   1.00
O2       0.77350    0.77350    0.33820   1.00
C1       0.75000    0.75000    0.14480   1.00
C1       0.75000    0.64480    0.25000   1.00
C1       0.85520    0.75000    0.25000   1.00
C1       0.64480    0.75000    0.25000   1.00
C1       0.75000    0.85520    0.25000   1.00
C1       0.75000    0.75000    0.35520   1.00
O1       0.75000    0.25000    0.75000   1.00
Zn1      0.78280    0.21720    0.71720   1.00
Zn1      0.71720    0.28280    0.71720   1.00
Zn1      0.71720    0.21720    0.78280   1.00
Zn1      0.78280    0.28280    0.78280   1.00
O2       0.77350    0.22650    0.66180   1.00
O2       0.77350    0.16180    0.72650   1.00
O2       0.83820    0.22650    0.72650   1.00
O2       0.72650    0.27350    0.66180   1.00
O2       0.66180    0.27350    0.72650   1.00
O2       0.72650    0.33820    0.72650   1.00
O2       0.72650    0.16180    0.77350   1.00
O2       0.66180    0.22650    0.77350   1.00
O2       0.72650    0.22650    0.83820   1.00
O2       0.83820    0.27350    0.77350   1.00
O2       0.77350    0.33820    0.77350   1.00
O2       0.77350    0.27350    0.83820   1.00
C1       0.75000    0.25000    0.64480   1.00
C1       0.75000    0.14480    0.75000   1.00
C1       0.85520    0.25000    0.75000   1.00
C1       0.64480    0.25000    0.75000   1.00
C1       0.75000    0.35520    0.75000   1.00
C1       0.75000    0.25000    0.85520   1.00
O1       0.25000    0.75000    0.75000   1.00
Zn1      0.28280    0.71720    0.71720   1.00
Zn1      0.21720    0.78280    0.71720   1.00
Zn1      0.21720    0.71720    0.78280   1.00
Zn1      0.28280    0.78280    0.78280   1.00
O2       0.27350    0.72650    0.66180   1.00
O2       0.27350    0.66180    0.72650   1.00
O2       0.33820    0.72650    0.72650   1.00
O2       0.22650    0.77350    0.66180   1.00
O2       0.16180    0.77350    0.72650   1.00
O2       0.22650    0.83820    0.72650   1.00
O2       0.22650    0.66180    0.77350   1.00
O2       0.16180    0.72650    0.77350   1.00
O2       0.22650    0.72650    0.83820   1.00
O2       0.33820    0.77350    0.77350   1.00
O2       0.27350    0.83820    0.77350   1.00
O2       0.27350    0.77350    0.83820   1.00
C1       0.25000    0.75000    0.64480   1.00
C1       0.25000    0.64480    0.75000   1.00
C1       0.35520    0.75000    0.75000   1.00
C1       0.14480    0.75000    0.75000   1.00
C1       0.25000    0.85520    0.75000   1.00
C1       0.25000    0.75000    0.85520   1.00
C5       0.86715    0.79848    1.13218   1.00
H2       0.84776    0.81946    1.14745   1.00
H2       0.88418    0.81603    1.11090   1.00
C5       0.89459    0.77900    1.16194   1.00
C5       0.92955    0.80564    1.17123   1.00
H2       0.90559    0.75081    1.15015   1.00
O3       0.78786    0.69015    0.98000   1.00
C4       0.74962    0.75018    1.02100   1.00
C3c      0.77877    0.76943    1.04243   1.00
H1       0.80178    0.78476    1.02725   1.00
C3d      0.71959    0.73086    1.04135   1.00
C3       0.77908    0.76879    1.08354   1.00
O2       0.80568    0.79216    1.10248   1.00
C3       0.72022    0.72953    1.08227   1.00
H1       0.69735    0.71319    1.09657   1.00
C2       0.74972    0.74848    1.10439   1.00
C5       0.76594    0.65528    0.97879   1.00
H2       0.76137    0.64468    0.94838   1.00
H2       0.73675    0.65930    0.99266   1.00
C5       0.78861    0.62432    1.00129   1.00
H2       0.79413    0.63538    1.03137   1.00
H2       0.81754    0.62029    0.98698   1.00
C5       0.76600    0.58553    1.00262   1.00
H2       0.76014    0.57445    0.97268   1.00
H2       0.73770    0.58922    1.01811   1.00
C5       0.79002    0.55447    1.02445   1.00
C5       0.66037    0.73326    1.01105   1.00
C5       0.83991    0.77063    1.11070   1.00
H2       0.66992    0.75683    0.99088   1.00
H2       0.64640    0.74687    1.03712   1.00
H2       0.85368    0.76047    1.08300   1.00
H2       0.83398    0.74421    1.12895   1.00
H2       0.87938    0.77361    1.19030   1.00
H2       0.61344    0.74761    0.94247   1.00
H2       0.58647    0.75449    0.98763   1.00
C2       0.74953    0.74736    0.89605   1.00
C3       0.73196    0.77885    0.91597   1.00
O2       0.70657    0.80347    0.89674   1.00
C3       0.76858    0.71823    0.91826   1.00
H1       0.78318    0.69428    0.90385   1.00
C3a      0.73289    0.78002    0.95713   1.00
H1       0.71739    0.80312    0.97202   1.00
C3b      0.76838    0.71882    0.95922   1.00
C4       0.75038    0.74982    0.97900   1.00
O3       0.69190    0.70901    1.02167   1.00
C5       0.72546    0.83879    0.88720   1.00
H2       0.73630    0.85399    0.91391   1.00
C5       0.69546    0.86449    0.86674   1.00
H2       0.75061    0.83353    0.86726   1.00
H2       0.67646    0.87809    0.88932   1.00
H2       0.67637    0.84500    0.84907   1.00
C5       0.71420    0.89604    0.84082   1.00
H2       0.73547    0.91324    0.85824   1.00
C5       0.68296    0.92391    0.82453   1.00
H2       0.72931    0.88286    0.81507   1.00
C5       0.63039    0.70788    0.99017   1.00
H2       0.61599    0.68875    1.01215   1.00
H2       0.64619    0.68836    0.96952   1.00
C5       0.60002    0.73246    0.96800   1.00
C5       0.56738    0.70592    0.95225   1.00
H2       0.92018    0.82910    1.19286   1.00
C5       0.96270    0.78115    1.18912   1.00
H2       0.94027    0.82003    1.14323   1.00
C5       0.76400    0.51895    1.03337   1.00
H2       0.81565    0.54495    1.00551   1.00
H2       0.80144    0.56728    1.05293   1.00
C5       0.70297    0.95905    0.80497   1.00
H2       0.66437    0.90785    0.80211   1.00
H2       0.66359    0.93459    0.84937   1.00
H2       0.58086    0.68021    0.93602   1.00
H2       0.54906    0.69464    0.97761   1.00
C5       0.54128    0.72934    0.92417   1.00
H2       0.95025    0.75277    1.20116   1.00
H2       0.98530    0.77430    1.16571   1.00
H2       0.97708    0.79828    1.21374   1.00
H2       0.73463    0.52263    1.01820   1.00
H2       0.77880    0.49130    1.02229   1.00
H2       0.75930    0.51661    1.06621   1.00
H2       0.73020    0.94876    0.78889   1.00
H2       0.68199    0.97314    0.78336   1.00
H2       0.71154    0.98127    0.82819   1.00
H2       0.55254    0.72587    0.89307   1.00
H2       0.51007    0.71800    0.92598   1.00
H2       0.54191    0.76148    0.93266   1.00
C5       0.79848    1.13218    0.86715   1.00
H2       0.81946    1.14745    0.84776   1.00
H2       0.81603    1.11090    0.88418   1.00
C5       0.77900    1.16194    0.89459   1.00
C5       0.80564    1.17123    0.92955   1.00
H2       0.75081    1.15015    0.90559   1.00
O3       0.69015    0.98000    0.78786   1.00
C4       0.75018    1.02100    0.74962   1.00
C3c      0.76943    1.04243    0.77877   1.00
H1       0.78476    1.02725    0.80178   1.00
C3d      0.73086    1.04135    0.71959   1.00
C3       0.76879    1.08354    0.77908   1.00
O2       0.79216    1.10248    0.80568   1.00
C3       0.72953    1.08227    0.72022   1.00
H1       0.71319    1.09657    0.69735   1.00
C2       0.74848    1.10439    0.74972   1.00
C5       0.65528    0.97879    0.76594   1.00
H2       0.64468    0.94838    0.76137   1.00
H2       0.65930    0.99266    0.73675   1.00
C5       0.62432    1.00129    0.78861   1.00
H2       0.63538    1.03137    0.79413   1.00
H2       0.62029    0.98698    0.81754   1.00
C5       0.58553    1.00262    0.76600   1.00
H2       0.57445    0.97268    0.76014   1.00
H2       0.58922    1.01811    0.73770   1.00
C5       0.55447    1.02445    0.79002   1.00
C5       0.73326    1.01105    0.66037   1.00
C5       0.77063    1.11070    0.83991   1.00
H2       0.75683    0.99088    0.66992   1.00
H2       0.74687    1.03712    0.64640   1.00
H2       0.76047    1.08300    0.85368   1.00
H2       0.74421    1.12895    0.83398   1.00
H2       0.77361    1.19030    0.87938   1.00
H2       0.74761    0.94247    0.61344   1.00
H2       0.75449    0.98763    0.58647   1.00
C2       0.74736    0.89605    0.74953   1.00
C3       0.77885    0.91597    0.73196   1.00
O2       0.80347    0.89674    0.70657   1.00
C3       0.71823    0.91826    0.76858   1.00
H1       0.69428    0.90385    0.78318   1.00
C3a      0.78002    0.95713    0.73289   1.00
H1       0.80312    0.97202    0.71739   1.00
C3b      0.71882    0.95922    0.76838   1.00
C4       0.74982    0.97900    0.75038   1.00
O3       0.70901    1.02167    0.69190   1.00
C5       0.83879    0.88720    0.72546   1.00
H2       0.85399    0.91391    0.73630   1.00
C5       0.86449    0.86674    0.69546   1.00
H2       0.83353    0.86726    0.75061   1.00
H2       0.87809    0.88932    0.67646   1.00
H2       0.84500    0.84907    0.67637   1.00
C5       0.89604    0.84082    0.71420   1.00
H2       0.91324    0.85824    0.73547   1.00
C5       0.92391    0.82453    0.68296   1.00
H2       0.88286    0.81507    0.72931   1.00
C5       0.70788    0.99017    0.63039   1.00
H2       0.68875    1.01215    0.61599   1.00
H2       0.68836    0.96952    0.64619   1.00
C5       0.73246    0.96800    0.60002   1.00
C5       0.70592    0.95225    0.56738   1.00
H2       0.82910    1.19286    0.92018   1.00
C5       0.78115    1.18912    0.96270   1.00
H2       0.82003    1.14323    0.94027   1.00
C5       0.51895    1.03337    0.76400   1.00
H2       0.54495    1.00551    0.81565   1.00
H2       0.56728    1.05293    0.80144   1.00
C5       0.95905    0.80497    0.70297   1.00
H2       0.90785    0.80211    0.66437   1.00
H2       0.93459    0.84937    0.66359   1.00
H2       0.68021    0.93602    0.58086   1.00
H2       0.69464    0.97761    0.54906   1.00
C5       0.72934    0.92417    0.54128   1.00
H2       0.75277    1.20116    0.95025   1.00
H2       0.77430    1.16571    0.98530   1.00
H2       0.79828    1.21374    0.97708   1.00
H2       0.52263    1.01820    0.73463   1.00
H2       0.49130    1.02229    0.77880   1.00
H2       0.51661    1.06621    0.75930   1.00
H2       0.94876    0.78889    0.73020   1.00
H2       0.97314    0.78336    0.68199   1.00
H2       0.98127    0.82819    0.71154   1.00
H2       0.72587    0.89307    0.55254   1.00
H2       0.71800    0.92598    0.51007   1.00
H2       0.76148    0.93266    0.54191   1.00
C5       0.36782    0.86715    0.70152   1.00
H2       0.35255    0.84776    0.68054   1.00
H2       0.38910    0.88418    0.68397   1.00
C5       0.33806    0.89459    0.72100   1.00
C5       0.32877    0.92955    0.69436   1.00
H2       0.34985    0.90559    0.74919   1.00
O3       0.52000    0.78786    0.80985   1.00
C4       0.47900    0.74962    0.74982   1.00
C3c      0.45757    0.77877    0.73057   1.00
H1       0.47275    0.80178    0.71524   1.00
C3d      0.45865    0.71959    0.76914   1.00
C3       0.41646    0.77908    0.73121   1.00
O2       0.39752    0.80568    0.70784   1.00
C3       0.41773    0.72022    0.77047   1.00
H1       0.40343    0.69735    0.78681   1.00
C2       0.39561    0.74972    0.75152   1.00
C5       0.52121    0.76594    0.84472   1.00
H2       0.55162    0.76137    0.85532   1.00
H2       0.50734    0.73675    0.84070   1.00
C5       0.49871    0.78861    0.87568   1.00
H2       0.46863    0.79413    0.86462   1.00
H2       0.51302    0.81754    0.87971   1.00
C5       0.49738    0.76600    0.91447   1.00
H2       0.52732    0.76014    0.92555   1.00
H2       0.48189    0.73770    0.91078   1.00
C5       0.47555    0.79002    0.94553   1.00
C5       0.48895    0.66037    0.76674   1.00
C5       0.38930    0.83991    0.72937   1.00
H2       0.50912    0.66992    0.74317   1.00
H2       0.46288    0.64640    0.75313   1.00
H2       0.41700    0.85368    0.73953   1.00
H2       0.37105    0.83398    0.75579   1.00
H2       0.30970    0.87938    0.72639   1.00
H2       0.55753    0.61344    0.75239   1.00
H2       0.51237    0.58647    0.74551   1.00
C2       0.60395    0.74953    0.75264   1.00
C3       0.58403    0.73196    0.72115   1.00
O2       0.60326    0.70657    0.69653   1.00
C3       0.58174    0.76858    0.78177   1.00
H1       0.59615    0.78318    0.80572   1.00
C3a      0.54287    0.73289    0.71998   1.00
H1       0.52798    0.71739    0.69688   1.00
C3b      0.54078    0.76838    0.78118   1.00
C4       0.52100    0.75038    0.75018   1.00
O3       0.47833    0.69190    0.79099   1.00
C5       0.61280    0.72546    0.66121   1.00
H2       0.58609    0.73630    0.64601   1.00
C5       0.63326    0.69546    0.63551   1.00
H2       0.63274    0.75061    0.66647   1.00
H2       0.61068    0.67646    0.62191   1.00
H2       0.65093    0.67637    0.65500   1.00
C5       0.65918    0.71420    0.60396   1.00
H2       0.64176    0.73547    0.58676   1.00
C5       0.67547    0.68296    0.57609   1.00
H2       0.68493    0.72931    0.61714   1.00
C5       0.50983    0.63039    0.79212   1.00
H2       0.48785    0.61599    0.81125   1.00
H2       0.53048    0.64619    0.81164   1.00
C5       0.53200    0.60002    0.76754   1.00
C5       0.54775    0.56738    0.79408   1.00
H2       0.30714    0.92018    0.67090   1.00
C5       0.31088    0.96270    0.71885   1.00
H2       0.35677    0.94027    0.67997   1.00
C5       0.46663    0.76400    0.98105   1.00
H2       0.49449    0.81565    0.95505   1.00
H2       0.44707    0.80144    0.93272   1.00
C5       0.69503    0.70297    0.54095   1.00
H2       0.69789    0.66437    0.59215   1.00
H2       0.65063    0.66359    0.56541   1.00
H2       0.56398    0.58086    0.81979   1.00
H2       0.52239    0.54906    0.80536   1.00
C5       0.57583    0.54128    0.77066   1.00
H2       0.29884    0.95025    0.74723   1.00
H2       0.33429    0.98530    0.72570   1.00
H2       0.28626    0.97708    0.70172   1.00
H2       0.48180    0.73463    0.97737   1.00
H2       0.47771    0.77880    1.00870   1.00
H2       0.43379    0.75930    0.98339   1.00
H2       0.71111    0.73020    0.55124   1.00
H2       0.71664    0.68199    0.52686   1.00
H2       0.67181    0.71154    0.51873   1.00
H2       0.60693    0.55254    0.77413   1.00
H2       0.57402    0.51007    0.78200   1.00
H2       0.56734    0.54191    0.73852   1.00
C5       1.13218    0.86715    0.79848   1.00
H2       1.14745    0.84776    0.81946   1.00
H2       1.11090    0.88418    0.81603   1.00
C5       1.16194    0.89459    0.77900   1.00
C5       1.17123    0.92955    0.80564   1.00
H2       1.15015    0.90559    0.75081   1.00
O3       0.98000    0.78786    0.69015   1.00
C4       1.02100    0.74962    0.75018   1.00
C3c      1.04243    0.77877    0.76943   1.00
H1       1.02725    0.80178    0.78476   1.00
C3d      1.04135    0.71959    0.73086   1.00
C3       1.08354    0.77908    0.76879   1.00
O2       1.10248    0.80568    0.79216   1.00
C3       1.08227    0.72022    0.72953   1.00
H1       1.09657    0.69735    0.71319   1.00
C2       1.10439    0.74972    0.74848   1.00
C5       0.97879    0.76594    0.65528   1.00
H2       0.94838    0.76137    0.64468   1.00
H2       0.99266    0.73675    0.65930   1.00
C5       1.00129    0.78861    0.62432   1.00
H2       1.03137    0.79413    0.63538   1.00
H2       0.98698    0.81754    0.62029   1.00
C5       1.00262    0.76600    0.58553   1.00
H2       0.97268    0.76014    0.57445   1.00
H2       1.01811    0.73770    0.58922   1.00
C5       1.02445    0.79002    0.55447   1.00
C5       1.01105    0.66037    0.73326   1.00
C5       1.11070    0.83991    0.77063   1.00
H2       0.99088    0.66992    0.75683   1.00
H2       1.03712    0.64640    0.74687   1.00
H2       1.08300    0.85368    0.76047   1.00
H2       1.12895    0.83398    0.74421   1.00
H2       1.19030    0.87938    0.77361   1.00
H2       0.94247    0.61344    0.74761   1.00
H2       0.98763    0.58647    0.75449   1.00
C2       0.89605    0.74953    0.74736   1.00
C3       0.91597    0.73196    0.77885   1.00
O2       0.89674    0.70657    0.80347   1.00
C3       0.91826    0.76858    0.71823   1.00
H1       0.90385    0.78318    0.69428   1.00
C3a      0.95713    0.73289    0.78002   1.00
H1       0.97202    0.71739    0.80312   1.00
C3b      0.95922    0.76838    0.71882   1.00
C4       0.97900    0.75038    0.74982   1.00
O3       1.02167    0.69190    0.70901   1.00
C5       0.88720    0.72546    0.83879   1.00
H2       0.91391    0.73630    0.85399   1.00
C5       0.86674    0.69546    0.86449   1.00
H2       0.86726    0.75061    0.83353   1.00
H2       0.88932    0.67646    0.87809   1.00
H2       0.84907    0.67637    0.84500   1.00
C5       0.84082    0.71420    0.89604   1.00
H2       0.85824    0.73547    0.91324   1.00
C5       0.82453    0.68296    0.92391   1.00
H2       0.81507    0.72931    0.88286   1.00
C5       0.99017    0.63039    0.70788   1.00
H2       1.01215    0.61599    0.68875   1.00
H2       0.96952    0.64619    0.68836   1.00
C5       0.96800    0.60002    0.73246   1.00
C5       0.95225    0.56738    0.70592   1.00
H2       1.19286    0.92018    0.82910   1.00
C5       1.18912    0.96270    0.78115   1.00
H2       1.14323    0.94027    0.82003   1.00
C5       1.03337    0.76400    0.51895   1.00
H2       1.00551    0.81565    0.54495   1.00
H2       1.05293    0.80144    0.56728   1.00
C5       0.80497    0.70297    0.95905   1.00
H2       0.80211    0.66437    0.90785   1.00
H2       0.84937    0.66359    0.93459   1.00
H2       0.93602    0.58086    0.68021   1.00
H2       0.97761    0.54906    0.69464   1.00
C5       0.92417    0.54128    0.72934   1.00
H2       1.20116    0.95025    0.75277   1.00
H2       1.16571    0.98530    0.77430   1.00
H2       1.21374    0.97708    0.79828   1.00
H2       1.01820    0.73463    0.52263   1.00
H2       1.02229    0.77880    0.49130   1.00
H2       1.06621    0.75930    0.51661   1.00
H2       0.78889    0.73020    0.94876   1.00
H2       0.78336    0.68199    0.97314   1.00
H2       0.82819    0.71154    0.98127   1.00
H2       0.89307    0.55254    0.72587   1.00
H2       0.92598    0.51007    0.71800   1.00
H2       0.93266    0.54191    0.76148   1.00
C5       0.70152    0.36782    0.86715   1.00
H2       0.68054    0.35255    0.84776   1.00
H2       0.68397    0.38910    0.88418   1.00
C5       0.72100    0.33806    0.89459   1.00
C5       0.69436    0.32877    0.92955   1.00
H2       0.74919    0.34985    0.90559   1.00
O3       0.80985    0.52000    0.78786   1.00
C4       0.74982    0.47900    0.74962   1.00
C3c      0.73057    0.45757    0.77877   1.00
H1       0.71524    0.47275    0.80178   1.00
C3d      0.76914    0.45865    0.71959   1.00
C3       0.73121    0.41646    0.77908   1.00
O2       0.70784    0.39752    0.80568   1.00
C3       0.77047    0.41773    0.72022   1.00
H1       0.78681    0.40343    0.69735   1.00
C2       0.75152    0.39561    0.74972   1.00
C5       0.84472    0.52121    0.76594   1.00
H2       0.85532    0.55162    0.76137   1.00
H2       0.84070    0.50734    0.73675   1.00
C5       0.87568    0.49871    0.78861   1.00
H2       0.86462    0.46863    0.79413   1.00
H2       0.87971    0.51302    0.81754   1.00
C5       0.91447    0.49738    0.76600   1.00
H2       0.92555    0.52732    0.76014   1.00
H2       0.91078    0.48189    0.73770   1.00
C5       0.94553    0.47555    0.79002   1.00
C5       0.76674    0.48895    0.66037   1.00
C5       0.72937    0.38930    0.83991   1.00
H2       0.74317    0.50912    0.66992   1.00
H2       0.75313    0.46288    0.64640   1.00
H2       0.73953    0.41700    0.85368   1.00
H2       0.75579    0.37105    0.83398   1.00
H2       0.72639    0.30970    0.87938   1.00
H2       0.75239    0.55753    0.61344   1.00
H2       0.74551    0.51237    0.58647   1.00
C2       0.75264    0.60395    0.74953   1.00
C3       0.72115    0.58403    0.73196   1.00
O2       0.69653    0.60326    0.70657   1.00
C3       0.78177    0.58174    0.76858   1.00
H1       0.80572    0.59615    0.78318   1.00
C3a      0.71998    0.54287    0.73289   1.00
H1       0.69688    0.52798    0.71739   1.00
C3b      0.78118    0.54078    0.76838   1.00
C4       0.75018    0.52100    0.75038   1.00
O3       0.79099    0.47833    0.69190   1.00
C5       0.66121    0.61280    0.72546   1.00
H2       0.64601    0.58609    0.73630   1.00
C5       0.63551    0.63326    0.69546   1.00
H2       0.66647    0.63274    0.75061   1.00
H2       0.62191    0.61068    0.67646   1.00
H2       0.65500    0.65093    0.67637   1.00
C5       0.60396    0.65918    0.71420   1.00
H2       0.58676    0.64176    0.73547   1.00
C5       0.57609    0.67547    0.68296   1.00
H2       0.61714    0.68493    0.72931   1.00
C5       0.79212    0.50983    0.63039   1.00
H2       0.81125    0.48785    0.61599   1.00
H2       0.81164    0.53048    0.64619   1.00
C5       0.76754    0.53200    0.60002   1.00
C5       0.79408    0.54775    0.56738   1.00
H2       0.67090    0.30714    0.92018   1.00
C5       0.71885    0.31088    0.96270   1.00
H2       0.67997    0.35677    0.94027   1.00
C5       0.98105    0.46663    0.76400   1.00
H2       0.95505    0.49449    0.81565   1.00
H2       0.93272    0.44707    0.80144   1.00
C5       0.54095    0.69503    0.70297   1.00
H2       0.59215    0.69789    0.66437   1.00
H2       0.56541    0.65063    0.66359   1.00
H2       0.81979    0.56398    0.58086   1.00
H2       0.80536    0.52239    0.54906   1.00
C5       0.77066    0.57583    0.54128   1.00
H2       0.74723    0.29884    0.95025   1.00
H2       0.72570    0.33429    0.98530   1.00
H2       0.70172    0.28626    0.97708   1.00
H2       0.97737    0.48180    0.73463   1.00
H2       1.00870    0.47771    0.77880   1.00
H2       0.98339    0.43379    0.75930   1.00
H2       0.55124    0.71111    0.73020   1.00
H2       0.52686    0.71664    0.68199   1.00
H2       0.51873    0.67181    0.71154   1.00
H2       0.77413    0.60693    0.55254   1.00
H2       0.78200    0.57402    0.51007   1.00
H2       0.73852    0.56734    0.54191   1.00
C5       0.86715    0.70152    0.36782   1.00
H2       0.84776    0.68054    0.35255   1.00
H2       0.88418    0.68397    0.38910   1.00
C5       0.89459    0.72100    0.33806   1.00
C5       0.92955    0.69436    0.32877   1.00
H2       0.90559    0.74919    0.34985   1.00
O3       0.78786    0.80985    0.52000   1.00
C4       0.74962    0.74982    0.47900   1.00
C3c      0.77877    0.73057    0.45757   1.00
H1       0.80178    0.71524    0.47275   1.00
C3d      0.71959    0.76914    0.45865   1.00
C3       0.77908    0.73121    0.41646   1.00
O2       0.80568    0.70784    0.39752   1.00
C3       0.72022    0.77047    0.41773   1.00
H1       0.69735    0.78681    0.40343   1.00
C2       0.74972    0.75152    0.39561   1.00
C5       0.76594    0.84472    0.52121   1.00
H2       0.76137    0.85532    0.55162   1.00
H2       0.73675    0.84070    0.50734   1.00
C5       0.78861    0.87568    0.49871   1.00
H2       0.79413    0.86462    0.46863   1.00
H2       0.81754    0.87971    0.51302   1.00
C5       0.76600    0.91447    0.49738   1.00
H2       0.76014    0.92555    0.52732   1.00
H2       0.73770    0.91078    0.48189   1.00
C5       0.79002    0.94553    0.47555   1.00
C5       0.66037    0.76674    0.48895   1.00
C5       0.83991    0.72937    0.38930   1.00
H2       0.66992    0.74317    0.50912   1.00
H2       0.64640    0.75313    0.46288   1.00
H2       0.85368    0.73953    0.41700   1.00
H2       0.83398    0.75579    0.37105   1.00
H2       0.87938    0.72639    0.30970   1.00
H2       0.61344    0.75239    0.55753   1.00
H2       0.58647    0.74551    0.51237   1.00
C2       0.74953    0.75264    0.60395   1.00
C3       0.73196    0.72115    0.58403   1.00
O2       0.70657    0.69653    0.60326   1.00
C3       0.76858    0.78177    0.58174   1.00
H1       0.78318    0.80572    0.59615   1.00
C3a      0.73289    0.71998    0.54287   1.00
H1       0.71739    0.69688    0.52798   1.00
C3b      0.76838    0.78118    0.54078   1.00
C4       0.75038    0.75018    0.52100   1.00
O3       0.69190    0.79099    0.47833   1.00
C5       0.72546    0.66121    0.61280   1.00
H2       0.73630    0.64601    0.58609   1.00
C5       0.69546    0.63551    0.63326   1.00
H2       0.75061    0.66647    0.63274   1.00
H2       0.67646    0.62191    0.61068   1.00
H2       0.67637    0.65500    0.65093   1.00
C5       0.71420    0.60396    0.65918   1.00
H2       0.73547    0.58676    0.64176   1.00
C5       0.68296    0.57609    0.67547   1.00
H2       0.72931    0.61714    0.68493   1.00
C5       0.63039    0.79212    0.50983   1.00
H2       0.61599    0.81125    0.48785   1.00
H2       0.64619    0.81164    0.53048   1.00
C5       0.60002    0.76754    0.53200   1.00
C5       0.56738    0.79408    0.54775   1.00
H2       0.92018    0.67090    0.30714   1.00
C5       0.96270    0.71885    0.31088   1.00
H2       0.94027    0.67997    0.35677   1.00
C5       0.76400    0.98105    0.46663   1.00
H2       0.81565    0.95505    0.49449   1.00
H2       0.80144    0.93272    0.44707   1.00
C5       0.70297    0.54095    0.69503   1.00
H2       0.66437    0.59215    0.69789   1.00
H2       0.66359    0.56541    0.65063   1.00
H2       0.58086    0.81979    0.56398   1.00
H2       0.54906    0.80536    0.52239   1.00
C5       0.54128    0.77066    0.57583   1.00
H2       0.95025    0.74723    0.29884   1.00
H2       0.98530    0.72570    0.33429   1.00
H2       0.97708    0.70172    0.28626   1.00
H2       0.73463    0.97737    0.48180   1.00
H2       0.77880    1.00870    0.47771   1.00
H2       0.75930    0.98339    0.43379   1.00
H2       0.73020    0.55124    0.71111   1.00
H2       0.68199    0.52686    0.71664   1.00
H2       0.71154    0.51873    0.67181   1.00
H2       0.55254    0.77413    0.60693   1.00
H2       0.51007    0.78200    0.57402   1.00
H2       0.54191    0.73852    0.56734   1.00
C5       0.36715    0.29848    1.13218   1.00
H2       0.34776    0.31946    1.14745   1.00
H2       0.38418    0.31603    1.11090   1.00
C5       0.39459    0.27900    1.16194   1.00
C5       0.42955    0.30564    1.17123   1.00
H2       0.40559    0.25081    1.15015   1.00
O3       0.28786    0.19015    0.98000   1.00
C4       0.24962    0.25018    1.02100   1.00
C3c      0.27877    0.26943    1.04243   1.00
H1       0.30178    0.28476    1.02725   1.00
C3d      0.21959    0.23086    1.04135   1.00
C3       0.27908    0.26879    1.08354   1.00
O2       0.30568    0.29216    1.10248   1.00
C3       0.22022    0.22953    1.08227   1.00
H1       0.19735    0.21319    1.09657   1.00
C2       0.24972    0.24848    1.10439   1.00
C5       0.26594    0.15528    0.97879   1.00
H2       0.26137    0.14468    0.94838   1.00
H2       0.23675    0.15930    0.99266   1.00
C5       0.28861    0.12432    1.00129   1.00
H2       0.29413    0.13538    1.03137   1.00
H2       0.31754    0.12029    0.98698   1.00
C5       0.26600    0.08553    1.00262   1.00
H2       0.26014    0.07445    0.97268   1.00
H2       0.23770    0.08922    1.01811   1.00
C5       0.29002    0.05447    1.02445   1.00
C5       0.16037    0.23326    1.01105   1.00
C5       0.33991    0.27063    1.11070   1.00
H2       0.16992    0.25683    0.99088   1.00
H2       0.14640    0.24687    1.03712   1.00
H2       0.35368    0.26047    1.08300   1.00
H2       0.33398    0.24421    1.12895   1.00
H2       0.37938    0.27361    1.19030   1.00
H2       0.11344    0.24761    0.94247   1.00
H2       0.08647    0.25449    0.98763   1.00
C2       0.24953    0.24736    0.89605   1.00
C3       0.23196    0.27885    0.91597   1.00
O2       0.20657    0.30347    0.89674   1.00
C3       0.26858    0.21823    0.91826   1.00
H1       0.28318    0.19428    0.90385   1.00
C3a      0.23289    0.28002    0.95713   1.00
H1       0.21739    0.30312    0.97202   1.00
C3b      0.26838    0.21882    0.95922   1.00
C4       0.25038    0.24982    0.97900   1.00
O3       0.19190    0.20901    1.02167   1.00
C5       0.22546    0.33879    0.88720   1.00
H2       0.23630    0.35399    0.91391   1.00
C5       0.19546    0.36449    0.86674   1.00
H2       0.25061    0.33353    0.86726   1.00
H2       0.17646    0.37809    0.88932   1.00
H2       0.17637    0.34500    0.84907   1.00
C5       0.21420    0.39604    0.84082   1.00
H2       0.23547    0.41324    0.85824   1.00
C5       0.18296    0.42391    0.82453   1.00
H2       0.22931    0.38286    0.81507   1.00
C5       0.13039    0.20788    0.99017   1.00
H2       0.11599    0.18875    1.01215   1.00
H2       0.14619    0.18836    0.96952   1.00
C5       0.10002    0.23246    0.96800   1.00
C5       0.06738    0.20592    0.95225   1.00
H2       0.42018    0.32910    1.19286   1.00
C5       0.46270    0.28115    1.18912   1.00
H2       0.44027    0.32003    1.14323   1.00
C5       0.26400    0.01895    1.03337   1.00
H2       0.31565    0.04495    1.00551   1.00
H2       0.30144    0.06728    1.05293   1.00
C5       0.20297    0.45905    0.80497   1.00
H2       0.16437    0.40785    0.80211   1.00
H2       0.16359    0.43459    0.84937   1.00
H2       0.08086    0.18021    0.93602   1.00
H2       0.04906    0.19464    0.97761   1.00
C5       0.04128    0.22934    0.92417   1.00
H2       0.45025    0.25277    1.20116   1.00
H2       0.48530    0.27430    1.16571   1.00
H2       0.47708    0.29828    1.21374   1.00
H2       0.23463    0.02263    1.01820   1.00
H2       0.27880    -0.00870   1.02229   1.00
H2       0.25930    0.01661    1.06621   1.00
H2       0.23020    0.44876    0.78889   1.00
H2       0.18199    0.47314    0.78336   1.00
H2       0.21154    0.48127    0.82819   1.00
H2       0.05254    0.22587    0.89307   1.00
H2       0.01007    0.21800    0.92598   1.00
H2       0.04191    0.26148    0.93266   1.00
C5       0.29848    0.63218    0.86715   1.00
H2       0.31946    0.64745    0.84776   1.00
H2       0.31603    0.61090    0.88418   1.00
C5       0.27900    0.66194    0.89459   1.00
C5       0.30564    0.67123    0.92955   1.00
H2       0.25081    0.65015    0.90559   1.00
O3       0.19015    0.48000    0.78786   1.00
C4       0.25018    0.52100    0.74962   1.00
C3c      0.26943    0.54243    0.77877   1.00
H1       0.28476    0.52725    0.80178   1.00
C3d      0.23086    0.54135    0.71959   1.00
C3       0.26879    0.58354    0.77908   1.00
O2       0.29216    0.60248    0.80568   1.00
C3       0.22953    0.58227    0.72022   1.00
H1       0.21319    0.59657    0.69735   1.00
C2       0.24848    0.60439    0.74972   1.00
C5       0.15528    0.47879    0.76594   1.00
H2       0.14468    0.44838    0.76137   1.00
H2       0.15930    0.49266    0.73675   1.00
C5       0.12432    0.50129    0.78861   1.00
H2       0.13538    0.53137    0.79413   1.00
H2       0.12029    0.48698    0.81754   1.00
C5       0.08553    0.50262    0.76600   1.00
H2       0.07445    0.47268    0.76014   1.00
H2       0.08922    0.51811    0.73770   1.00
C5       0.05447    0.52445    0.79002   1.00
C5       0.23326    0.51105    0.66037   1.00
C5       0.27063    0.61070    0.83991   1.00
H2       0.25683    0.49088    0.66992   1.00
H2       0.24687    0.53712    0.64640   1.00
H2       0.26047    0.58300    0.85368   1.00
H2       0.24421    0.62895    0.83398   1.00
H2       0.27361    0.69030    0.87938   1.00
H2       0.24761    0.44247    0.61344   1.00
H2       0.25449    0.48763    0.58647   1.00
C2       0.24736    0.39605    0.74953   1.00
C3       0.27885    0.41597    0.73196   1.00
O2       0.30347    0.39674    0.70657   1.00
C3       0.21823    0.41826    0.76858   1.00
H1       0.19428    0.40385    0.78318   1.00
C3a      0.28002    0.45713    0.73289   1.00
H1       0.30312    0.47202    0.71739   1.00
C3b      0.21882    0.45922    0.76838   1.00
C4       0.24982    0.47900    0.75038   1.00
O3       0.20901    0.52167    0.69190   1.00
C5       0.33879    0.38720    0.72546   1.00
H2       0.35399    0.41391    0.73630   1.00
C5       0.36449    0.36674    0.69546   1.00
H2       0.33353    0.36726    0.75061   1.00
H2       0.37809    0.38932    0.67646   1.00
H2       0.34500    0.34907    0.67637   1.00
C5       0.39604    0.34082    0.71420   1.00
H2       0.41324    0.35824    0.73547   1.00
C5       0.42391    0.32453    0.68296   1.00
H2       0.38286    0.31507    0.72931   1.00
C5       0.20788    0.49017    0.63039   1.00
H2       0.18875    0.51215    0.61599   1.00
H2       0.18836    0.46952    0.64619   1.00
C5       0.23246    0.46800    0.60002   1.00
C5       0.20592    0.45225    0.56738   1.00
H2       0.32910    0.69286    0.92018   1.00
C5       0.28115    0.68912    0.96270   1.00
H2       0.32003    0.64323    0.94027   1.00
C5       0.01895    0.53337    0.76400   1.00
H2       0.04495    0.50551    0.81565   1.00
H2       0.06728    0.55293    0.80144   1.00
C5       0.45905    0.30497    0.70297   1.00
H2       0.40785    0.30211    0.66437   1.00
H2       0.43459    0.34937    0.66359   1.00
H2       0.18021    0.43602    0.58086   1.00
H2       0.19464    0.47761    0.54906   1.00
C5       0.22934    0.42417    0.54128   1.00
H2       0.25277    0.70116    0.95025   1.00
H2       0.27430    0.66571    0.98530   1.00
H2       0.29828    0.71374    0.97708   1.00
H2       0.02263    0.51820    0.73463   1.00
H2       -0.00870   0.52229    0.77880   1.00
H2       0.01661    0.56621    0.75930   1.00
H2       0.44876    0.28889    0.73020   1.00
H2       0.47314    0.28336    0.68199   1.00
H2       0.48127    0.32819    0.71154   1.00
H2       0.22587    0.39307    0.55254   1.00
H2       0.21800    0.42598    0.51007   1.00
H2       0.26148    0.43266    0.54191   1.00
C5       -0.13218   0.36715    0.70152   1.00
H2       -0.14745   0.34776    0.68054   1.00
H2       -0.11090   0.38418    0.68397   1.00
C5       -0.16194   0.39459    0.72100   1.00
C5       -0.17123   0.42955    0.69436   1.00
H2       -0.15015   0.40559    0.74919   1.00
O3       0.02000    0.28786    0.80985   1.00
C4       -0.02100   0.24962    0.74982   1.00
C3c      -0.04243   0.27877    0.73057   1.00
H1       -0.02725   0.30178    0.71524   1.00
C3d      -0.04135   0.21959    0.76914   1.00
C3       -0.08354   0.27908    0.73121   1.00
O2       -0.10248   0.30568    0.70784   1.00
C3       -0.08227   0.22022    0.77047   1.00
H1       -0.09657   0.19735    0.78681   1.00
C2       -0.10439   0.24972    0.75152   1.00
C5       0.02121    0.26594    0.84472   1.00
H2       0.05162    0.26137    0.85532   1.00
H2       0.00734    0.23675    0.84070   1.00
C5       -0.00129   0.28861    0.87568   1.00
H2       -0.03137   0.29413    0.86462   1.00
H2       0.01302    0.31754    0.87971   1.00
C5       -0.00262   0.26600    0.91447   1.00
H2       0.02732    0.26014    0.92555   1.00
H2       -0.01811   0.23770    0.91078   1.00
C5       -0.02445   0.29002    0.94553   1.00
C5       -0.01105   0.16037    0.76674   1.00
C5       -0.11070   0.33991    0.72937   1.00
H2       0.00912    0.16992    0.74317   1.00
H2       -0.03712   0.14640    0.75313   1.00
H2       -0.08300   0.35368    0.73953   1.00
H2       -0.12895   0.33398    0.75579   1.00
H2       -0.19030   0.37938    0.72639   1.00
H2       0.05753    0.11344    0.75239   1.00
H2       0.01237    0.08647    0.74551   1.00
C2       0.10395    0.24953    0.75264   1.00
C3       0.08403    0.23196    0.72115   1.00
O2       0.10326    0.20657    0.69653   1.00
C3       0.08174    0.26858    0.78177   1.00
H1       0.09615    0.28318    0.80572   1.00
C3a      0.04287    0.23289    0.71998   1.00
H1       0.02798    0.21739    0.69688   1.00
C3b      0.04078    0.26838    0.78118   1.00
C4       0.02100    0.25038    0.75018   1.00
O3       -0.02167   0.19190    0.79099   1.00
C5       0.11280    0.22546    0.66121   1.00
H2       0.08609    0.23630    0.64601   1.00
C5       0.13326    0.19546    0.63551   1.00
H2       0.13274    0.25061    0.66647   1.00
H2       0.11068    0.17646    0.62191   1.00
H2       0.15093    0.17637    0.65500   1.00
C5       0.15918    0.21420    0.60396   1.00
H2       0.14176    0.23547    0.58676   1.00
C5       0.17547    0.18296    0.57609   1.00
H2       0.18493    0.22931    0.61714   1.00
C5       0.00983    0.13039    0.79212   1.00
H2       -0.01215   0.11599    0.81125   1.00
H2       0.03048    0.14619    0.81164   1.00
C5       0.03200    0.10002    0.76754   1.00
C5       0.04775    0.06738    0.79408   1.00
H2       -0.19286   0.42018    0.67090   1.00
C5       -0.18912   0.46270    0.71885   1.00
H2       -0.14323   0.44027    0.67997   1.00
C5       -0.03337   0.26400    0.98105   1.00
H2       -0.00551   0.31565    0.95505   1.00
H2       -0.05293   0.30144    0.93272   1.00
C5       0.19503    0.20297    0.54095   1.00
H2       0.19789    0.16437    0.59215   1.00
H2       0.15063    0.16359    0.56541   1.00
H2       0.06398    0.08086    0.81979   1.00
H2       0.02239    0.04906    0.80536   1.00
C5       0.07583    0.04128    0.77066   1.00
H2       -0.20116   0.45025    0.74723   1.00
H2       -0.16571   0.48530    0.72570   1.00
H2       -0.21374   0.47708    0.70172   1.00
H2       -0.01820   0.23463    0.97737   1.00
H2       -0.02229   0.27880    1.00870   1.00
H2       -0.06621   0.25930    0.98339   1.00
H2       0.21111    0.23020    0.55124   1.00
H2       0.21664    0.18199    0.52686   1.00
H2       0.17181    0.21154    0.51873   1.00
H2       0.10693    0.05254    0.77413   1.00
H2       0.07402    0.01007    0.78200   1.00
H2       0.06734    0.04191    0.73852   1.00
C5       0.63218    0.36715    0.79848   1.00
H2       0.64745    0.34776    0.81946   1.00
H2       0.61090    0.38418    0.81603   1.00
C5       0.66194    0.39459    0.77900   1.00
C5       0.67123    0.42955    0.80564   1.00
H2       0.65015    0.40559    0.75081   1.00
O3       0.48000    0.28786    0.69015   1.00
C4       0.52100    0.24962    0.75018   1.00
C3c      0.54243    0.27877    0.76943   1.00
H1       0.52725    0.30178    0.78476   1.00
C3d      0.54135    0.21959    0.73086   1.00
C3       0.58354    0.27908    0.76879   1.00
O2       0.60248    0.30568    0.79216   1.00
C3       0.58227    0.22022    0.72953   1.00
H1       0.59657    0.19735    0.71319   1.00
C2       0.60439    0.24972    0.74848   1.00
C5       0.47879    0.26594    0.65528   1.00
H2       0.44838    0.26137    0.64468   1.00
H2       0.49266    0.23675    0.65930   1.00
C5       0.50129    0.28861    0.62432   1.00
H2       0.53137    0.29413    0.63538   1.00
H2       0.48698    0.31754    0.62029   1.00
C5       0.50262    0.26600    0.58553   1.00
H2       0.47268    0.26014    0.57445   1.00
H2       0.51811    0.23770    0.58922   1.00
C5       0.52445    0.29002    0.55447   1.00
C5       0.51105    0.16037    0.73326   1.00
C5       0.61070    0.33991    0.77063   1.00
H2       0.49088    0.16992    0.75683   1.00
H2       0.53712    0.14640    0.74687   1.00
H2       0.58300    0.35368    0.76047   1.00
H2       0.62895    0.33398    0.74421   1.00
H2       0.69030    0.37938    0.77361   1.00
H2       0.44247    0.11344    0.74761   1.00
H2       0.48763    0.08647    0.75449   1.00
C2       0.39605    0.24953    0.74736   1.00
C3       0.41597    0.23196    0.77885   1.00
O2       0.39674    0.20657    0.80347   1.00
C3       0.41826    0.26858    0.71823   1.00
H1       0.40385    0.28318    0.69428   1.00
C3a      0.45713    0.23289    0.78002   1.00
H1       0.47202    0.21739    0.80312   1.00
C3b      0.45922    0.26838    0.71882   1.00
C4       0.47900    0.25038    0.74982   1.00
O3       0.52167    0.19190    0.70901   1.00
C5       0.38720    0.22546    0.83879   1.00
H2       0.41391    0.23630    0.85399   1.00
C5       0.36674    0.19546    0.86449   1.00
H2       0.36726    0.25061    0.83353   1.00
H2       0.38932    0.17646    0.87809   1.00
H2       0.34907    0.17637    0.84500   1.00
C5       0.34082    0.21420    0.89604   1.00
H2       0.35824    0.23547    0.91324   1.00
C5       0.32453    0.18296    0.92391   1.00
H2       0.31507    0.22931    0.88286   1.00
C5       0.49017    0.13039    0.70788   1.00
H2       0.51215    0.11599    0.68875   1.00
H2       0.46952    0.14619    0.68836   1.00
C5       0.46800    0.10002    0.73246   1.00
C5       0.45225    0.06738    0.70592   1.00
H2       0.69286    0.42018    0.82910   1.00
C5       0.68912    0.46270    0.78115   1.00
H2       0.64323    0.44027    0.82003   1.00
C5       0.53337    0.26400    0.51895   1.00
H2       0.50551    0.31565    0.54495   1.00
H2       0.55293    0.30144    0.56728   1.00
C5       0.30497    0.20297    0.95905   1.00
H2       0.30211    0.16437    0.90785   1.00
H2       0.34937    0.16359    0.93459   1.00
H2       0.43602    0.08086    0.68021   1.00
H2       0.47761    0.04906    0.69464   1.00
C5       0.42417    0.04128    0.72934   1.00
H2       0.70116    0.45025    0.75277   1.00
H2       0.66571    0.48530    0.77430   1.00
H2       0.71374    0.47708    0.79828   1.00
H2       0.51820    0.23463    0.52263   1.00
H2       0.52229    0.27880    0.49130   1.00
H2       0.56621    0.25930    0.51661   1.00
H2       0.28889    0.23020    0.94876   1.00
H2       0.28336    0.18199    0.97314   1.00
H2       0.32819    0.21154    0.98127   1.00
H2       0.39307    0.05254    0.72587   1.00
H2       0.42598    0.01007    0.71800   1.00
H2       0.43266    0.04191    0.76148   1.00
C5       0.20152    -0.13218   0.86715   1.00
H2       0.18054    -0.14745   0.84776   1.00
H2       0.18397    -0.11090   0.88418   1.00
C5       0.22100    -0.16194   0.89459   1.00
C5       0.19436    -0.17123   0.92955   1.00
H2       0.24919    -0.15015   0.90559   1.00
O3       0.30985    0.02000    0.78786   1.00
C4       0.24982    -0.02100   0.74962   1.00
C3c      0.23057    -0.04243   0.77877   1.00
H1       0.21524    -0.02725   0.80178   1.00
C3d      0.26914    -0.04135   0.71959   1.00
C3       0.23121    -0.08354   0.77908   1.00
O2       0.20784    -0.10248   0.80568   1.00
C3       0.27047    -0.08227   0.72022   1.00
H1       0.28681    -0.09657   0.69735   1.00
C2       0.25152    -0.10439   0.74972   1.00
C5       0.34472    0.02121    0.76594   1.00
H2       0.35532    0.05162    0.76137   1.00
H2       0.34070    0.00734    0.73675   1.00
C5       0.37568    -0.00129   0.78861   1.00
H2       0.36462    -0.03137   0.79413   1.00
H2       0.37971    0.01302    0.81754   1.00
C5       0.41447    -0.00262   0.76600   1.00
H2       0.42555    0.02732    0.76014   1.00
H2       0.41078    -0.01811   0.73770   1.00
C5       0.44553    -0.02445   0.79002   1.00
C5       0.26674    -0.01105   0.66037   1.00
C5       0.22937    -0.11070   0.83991   1.00
H2       0.24317    0.00912    0.66992   1.00
H2       0.25313    -0.03712   0.64640   1.00
H2       0.23953    -0.08300   0.85368   1.00
H2       0.25579    -0.12895   0.83398   1.00
H2       0.22639    -0.19030   0.87938   1.00
H2       0.25239    0.05753    0.61344   1.00
H2       0.24551    0.01237    0.58647   1.00
C2       0.25264    0.10395    0.74953   1.00
C3       0.22115    0.08403    0.73196   1.00
O2       0.19653    0.10326    0.70657   1.00
C3       0.28177    0.08174    0.76858   1.00
H1       0.30572    0.09615    0.78318   1.00
C3a      0.21998    0.04287    0.73289   1.00
H1       0.19688    0.02798    0.71739   1.00
C3b      0.28118    0.04078    0.76838   1.00
C4       0.25018    0.02100    0.75038   1.00
O3       0.29099    -0.02167   0.69190   1.00
C5       0.16121    0.11280    0.72546   1.00
H2       0.14601    0.08609    0.73630   1.00
C5       0.13551    0.13326    0.69546   1.00
H2       0.16647    0.13274    0.75061   1.00
H2       0.12191    0.11068    0.67646   1.00
H2       0.15500    0.15093    0.67637   1.00
C5       0.10396    0.15918    0.71420   1.00
H2       0.08676    0.14176    0.73547   1.00
C5       0.07609    0.17547    0.68296   1.00
H2       0.11714    0.18493    0.72931   1.00
C5       0.29212    0.00983    0.63039   1.00
H2       0.31125    -0.01215   0.61599   1.00
H2       0.31164    0.03048    0.64619   1.00
C5       0.26754    0.03200    0.60002   1.00
C5       0.29408    0.04775    0.56738   1.00
H2       0.17090    -0.19286   0.92018   1.00
C5       0.21885    -0.18912   0.96270   1.00
H2       0.17997    -0.14323   0.94027   1.00
C5       0.48105    -0.03337   0.76400   1.00
H2       0.45505    -0.00551   0.81565   1.00
H2       0.43272    -0.05293   0.80144   1.00
C5       0.04095    0.19503    0.70297   1.00
H2       0.09215    0.19789    0.66437   1.00
H2       0.06541    0.15063    0.66359   1.00
H2       0.31979    0.06398    0.58086   1.00
H2       0.30536    0.02239    0.54906   1.00
C5       0.27066    0.07583    0.54128   1.00
H2       0.24723    -0.20116   0.95025   1.00
H2       0.22570    -0.16571   0.98530   1.00
H2       0.20172    -0.21374   0.97708   1.00
H2       0.47737    -0.01820   0.73463   1.00
H2       0.50870    -0.02229   0.77880   1.00
H2       0.48339    -0.06621   0.75930   1.00
H2       0.05124    0.21111    0.73020   1.00
H2       0.02686    0.21664    0.68199   1.00
H2       0.01873    0.17181    0.71154   1.00
H2       0.27413    0.10693    0.55254   1.00
H2       0.28200    0.07402    0.51007   1.00
H2       0.23852    0.06734    0.54191   1.00
C5       0.36715    0.20152    0.36782   1.00
H2       0.34776    0.18054    0.35255   1.00
H2       0.38418    0.18397    0.38910   1.00
C5       0.39459    0.22100    0.33806   1.00
C5       0.42955    0.19436    0.32877   1.00
H2       0.40559    0.24919    0.34985   1.00
O3       0.28786    0.30985    0.52000   1.00
C4       0.24962    0.24982    0.47900   1.00
C3c      0.27877    0.23057    0.45757   1.00
H1       0.30178    0.21524    0.47275   1.00
C3d      0.21959    0.26914    0.45865   1.00
C3       0.27908    0.23121    0.41646   1.00
O2       0.30568    0.20784    0.39752   1.00
C3       0.22022    0.27047    0.41773   1.00
H1       0.19735    0.28681    0.40343   1.00
C2       0.24972    0.25152    0.39561   1.00
C5       0.26594    0.34472    0.52121   1.00
H2       0.26137    0.35532    0.55162   1.00
H2       0.23675    0.34070    0.50734   1.00
C5       0.28861    0.37568    0.49871   1.00
H2       0.29413    0.36462    0.46863   1.00
H2       0.31754    0.37971    0.51302   1.00
C5       0.26600    0.41447    0.49738   1.00
H2       0.26014    0.42555    0.52732   1.00
H2       0.23770    0.41078    0.48189   1.00
C5       0.29002    0.44553    0.47555   1.00
C5       0.16037    0.26674    0.48895   1.00
C5       0.33991    0.22937    0.38930   1.00
H2       0.16992    0.24317    0.50912   1.00
H2       0.14640    0.25313    0.46288   1.00
H2       0.35368    0.23953    0.41700   1.00
H2       0.33398    0.25579    0.37105   1.00
H2       0.37938    0.22639    0.30970   1.00
H2       0.11344    0.25239    0.55753   1.00
H2       0.08647    0.24551    0.51237   1.00
C2       0.24953    0.25264    0.60395   1.00
C3       0.23196    0.22115    0.58403   1.00
O2       0.20657    0.19653    0.60326   1.00
C3       0.26858    0.28177    0.58174   1.00
H1       0.28318    0.30572    0.59615   1.00
C3a      0.23289    0.21998    0.54287   1.00
H1       0.21739    0.19688    0.52798   1.00
C3b      0.26838    0.28118    0.54078   1.00
C4       0.25038    0.25018    0.52100   1.00
O3       0.19190    0.29099    0.47833   1.00
C5       0.22546    0.16121    0.61280   1.00
H2       0.23630    0.14601    0.58609   1.00
C5       0.19546    0.13551    0.63326   1.00
H2       0.25061    0.16647    0.63274   1.00
H2       0.17646    0.12191    0.61068   1.00
H2       0.17637    0.15500    0.65093   1.00
C5       0.21420    0.10396    0.65918   1.00
H2       0.23547    0.08676    0.64176   1.00
C5       0.18296    0.07609    0.67547   1.00
H2       0.22931    0.11714    0.68493   1.00
C5       0.13039    0.29212    0.50983   1.00
H2       0.11599    0.31125    0.48785   1.00
H2       0.14619    0.31164    0.53048   1.00
C5       0.10002    0.26754    0.53200   1.00
C5       0.06738    0.29408    0.54775   1.00
H2       0.42018    0.17090    0.30714   1.00
C5       0.46270    0.21885    0.31088   1.00
H2       0.44027    0.17997    0.35677   1.00
C5       0.26400    0.48105    0.46663   1.00
H2       0.31565    0.45505    0.49449   1.00
H2       0.30144    0.43272    0.44707   1.00
C5       0.20297    0.04095    0.69503   1.00
H2       0.16437    0.09215    0.69789   1.00
H2       0.16359    0.06541    0.65063   1.00
H2       0.08086    0.31979    0.56398   1.00
H2       0.04906    0.30536    0.52239   1.00
C5       0.04128    0.27066    0.57583   1.00
H2       0.45025    0.24723    0.29884   1.00
H2       0.48530    0.22570    0.33429   1.00
H2       0.47708    0.20172    0.28626   1.00
H2       0.23463    0.47737    0.48180   1.00
H2       0.27880    0.50870    0.47771   1.00
H2       0.25930    0.48339    0.43379   1.00
H2       0.23020    0.05124    0.71111   1.00
H2       0.18199    0.02686    0.71664   1.00
H2       0.21154    0.01873    0.67181   1.00
H2       0.05254    0.27413    0.60693   1.00
H2       0.01007    0.28200    0.57402   1.00
H2       0.04191    0.23852    0.56734   1.00
C5       0.36715    0.79848    0.63218   1.00
H2       0.34776    0.81946    0.64745   1.00
H2       0.38418    0.81603    0.61090   1.00
C5       0.39459    0.77900    0.66194   1.00
C5       0.42955    0.80564    0.67123   1.00
H2       0.40559    0.75081    0.65015   1.00
O3       0.28786    0.69015    0.48000   1.00
C4       0.24962    0.75018    0.52100   1.00
C3c      0.27877    0.76943    0.54243   1.00
H1       0.30178    0.78476    0.52725   1.00
C3d      0.21959    0.73086    0.54135   1.00
C3       0.27908    0.76879    0.58354   1.00
O2       0.30568    0.79216    0.60248   1.00
C3       0.22022    0.72953    0.58227   1.00
H1       0.19735    0.71319    0.59657   1.00
C2       0.24972    0.74848    0.60439   1.00
C5       0.26594    0.65528    0.47879   1.00
H2       0.26137    0.64468    0.44838   1.00
H2       0.23675    0.65930    0.49266   1.00
C5       0.28861    0.62432    0.50129   1.00
H2       0.29413    0.63538    0.53137   1.00
H2       0.31754    0.62029    0.48698   1.00
C5       0.26600    0.58553    0.50262   1.00
H2       0.26014    0.57445    0.47268   1.00
H2       0.23770    0.58922    0.51811   1.00
C5       0.29002    0.55447    0.52445   1.00
C5       0.16037    0.73326    0.51105   1.00
C5       0.33991    0.77063    0.61070   1.00
H2       0.16992    0.75683    0.49088   1.00
H2       0.14640    0.74687    0.53712   1.00
H2       0.35368    0.76047    0.58300   1.00
H2       0.33398    0.74421    0.62895   1.00
H2       0.37938    0.77361    0.69030   1.00
H2       0.11344    0.74761    0.44247   1.00
H2       0.08647    0.75449    0.48763   1.00
C2       0.24953    0.74736    0.39605   1.00
C3       0.23196    0.77885    0.41597   1.00
O2       0.20657    0.80347    0.39674   1.00
C3       0.26858    0.71823    0.41826   1.00
H1       0.28318    0.69428    0.40385   1.00
C3a      0.23289    0.78002    0.45713   1.00
H1       0.21739    0.80312    0.47202   1.00
C3b      0.26838    0.71882    0.45922   1.00
C4       0.25038    0.74982    0.47900   1.00
O3       0.19190    0.70901    0.52167   1.00
C5       0.22546    0.83879    0.38720   1.00
H2       0.23630    0.85399    0.41391   1.00
C5       0.19546    0.86449    0.36674   1.00
H2       0.25061    0.83353    0.36726   1.00
H2       0.17646    0.87809    0.38932   1.00
H2       0.17637    0.84500    0.34907   1.00
C5       0.21420    0.89604    0.34082   1.00
H2       0.23547    0.91324    0.35824   1.00
C5       0.18296    0.92391    0.32453   1.00
H2       0.22931    0.88286    0.31507   1.00
C5       0.13039    0.70788    0.49017   1.00
H2       0.11599    0.68875    0.51215   1.00
H2       0.14619    0.68836    0.46952   1.00
C5       0.10002    0.73246    0.46800   1.00
C5       0.06738    0.70592    0.45225   1.00
H2       0.42018    0.82910    0.69286   1.00
C5       0.46270    0.78115    0.68912   1.00
H2       0.44027    0.82003    0.64323   1.00
C5       0.26400    0.51895    0.53337   1.00
H2       0.31565    0.54495    0.50551   1.00
H2       0.30144    0.56728    0.55293   1.00
C5       0.20297    0.95905    0.30497   1.00
H2       0.16437    0.90785    0.30211   1.00
H2       0.16359    0.93459    0.34937   1.00
H2       0.08086    0.68021    0.43602   1.00
H2       0.04906    0.69464    0.47761   1.00
C5       0.04128    0.72934    0.42417   1.00
H2       0.45025    0.75277    0.70116   1.00
H2       0.48530    0.77430    0.66571   1.00
H2       0.47708    0.79828    0.71374   1.00
H2       0.23463    0.52263    0.51820   1.00
H2       0.27880    0.49130    0.52229   1.00
H2       0.25930    0.51661    0.56621   1.00
H2       0.23020    0.94876    0.28889   1.00
H2       0.18199    0.97314    0.28336   1.00
H2       0.21154    0.98127    0.32819   1.00
H2       0.05254    0.72587    0.39307   1.00
H2       0.01007    0.71800    0.42598   1.00
H2       0.04191    0.76148    0.43266   1.00
C5       0.29848    1.13218    0.36715   1.00
H2       0.31946    1.14745    0.34776   1.00
H2       0.31603    1.11090    0.38418   1.00
C5       0.27900    1.16194    0.39459   1.00
C5       0.30564    1.17123    0.42955   1.00
H2       0.25081    1.15015    0.40559   1.00
O3       0.19015    0.98000    0.28786   1.00
C4       0.25018    1.02100    0.24962   1.00
C3c      0.26943    1.04243    0.27877   1.00
H1       0.28476    1.02725    0.30178   1.00
C3d      0.23086    1.04135    0.21959   1.00
C3       0.26879    1.08354    0.27908   1.00
O2       0.29216    1.10248    0.30568   1.00
C3       0.22953    1.08227    0.22022   1.00
H1       0.21319    1.09657    0.19735   1.00
C2       0.24848    1.10439    0.24972   1.00
C5       0.15528    0.97879    0.26594   1.00
H2       0.14468    0.94838    0.26137   1.00
H2       0.15930    0.99266    0.23675   1.00
C5       0.12432    1.00129    0.28861   1.00
H2       0.13538    1.03137    0.29413   1.00
H2       0.12029    0.98698    0.31754   1.00
C5       0.08553    1.00262    0.26600   1.00
H2       0.07445    0.97268    0.26014   1.00
H2       0.08922    1.01811    0.23770   1.00
C5       0.05447    1.02445    0.29002   1.00
C5       0.23326    1.01105    0.16037   1.00
C5       0.27063    1.11070    0.33991   1.00
H2       0.25683    0.99088    0.16992   1.00
H2       0.24687    1.03712    0.14640   1.00
H2       0.26047    1.08300    0.35368   1.00
H2       0.24421    1.12895    0.33398   1.00
H2       0.27361    1.19030    0.37938   1.00
H2       0.24761    0.94247    0.11344   1.00
H2       0.25449    0.98763    0.08647   1.00
C2       0.24736    0.89605    0.24953   1.00
C3       0.27885    0.91597    0.23196   1.00
O2       0.30347    0.89674    0.20657   1.00
C3       0.21823    0.91826    0.26858   1.00
H1       0.19428    0.90385    0.28318   1.00
C3a      0.28002    0.95713    0.23289   1.00
H1       0.30312    0.97202    0.21739   1.00
C3b      0.21882    0.95922    0.26838   1.00
C4       0.24982    0.97900    0.25038   1.00
O3       0.20901    1.02167    0.19190   1.00
C5       0.33879    0.88720    0.22546   1.00
H2       0.35399    0.91391    0.23630   1.00
C5       0.36449    0.86674    0.19546   1.00
H2       0.33353    0.86726    0.25061   1.00
H2       0.37809    0.88932    0.17646   1.00
H2       0.34500    0.84907    0.17637   1.00
C5       0.39604    0.84082    0.21420   1.00
H2       0.41324    0.85824    0.23547   1.00
C5       0.42391    0.82453    0.18296   1.00
H2       0.38286    0.81507    0.22931   1.00
C5       0.20788    0.99017    0.13039   1.00
H2       0.18875    1.01215    0.11599   1.00
H2       0.18836    0.96952    0.14619   1.00
C5       0.23246    0.96800    0.10002   1.00
C5       0.20592    0.95225    0.06738   1.00
H2       0.32910    1.19286    0.42018   1.00
C5       0.28115    1.18912    0.46270   1.00
H2       0.32003    1.14323    0.44027   1.00
C5       0.01895    1.03337    0.26400   1.00
H2       0.04495    1.00551    0.31565   1.00
H2       0.06728    1.05293    0.30144   1.00
C5       0.45905    0.80497    0.20297   1.00
H2       0.40785    0.80211    0.16437   1.00
H2       0.43459    0.84937    0.16359   1.00
H2       0.18021    0.93602    0.08086   1.00
H2       0.19464    0.97761    0.04906   1.00
C5       0.22934    0.92417    0.04128   1.00
H2       0.25277    1.20116    0.45025   1.00
H2       0.27430    1.16571    0.48530   1.00
H2       0.29828    1.21374    0.47708   1.00
H2       0.02263    1.01820    0.23463   1.00
H2       -0.00870   1.02229    0.27880   1.00
H2       0.01661    1.06621    0.25930   1.00
H2       0.44876    0.78889    0.23020   1.00
H2       0.47314    0.78336    0.18199   1.00
H2       0.48127    0.82819    0.21154   1.00
H2       0.22587    0.89307    0.05254   1.00
H2       0.21800    0.92598    0.01007   1.00
H2       0.26148    0.93266    0.04191   1.00
C5       -0.13218   0.86715    0.20152   1.00
H2       -0.14745   0.84776    0.18054   1.00
H2       -0.11090   0.88418    0.18397   1.00
C5       -0.16194   0.89459    0.22100   1.00
C5       -0.17123   0.92955    0.19436   1.00
H2       -0.15015   0.90559    0.24919   1.00
O3       0.02000    0.78786    0.30985   1.00
C4       -0.02100   0.74962    0.24982   1.00
C3c      -0.04243   0.77877    0.23057   1.00
H1       -0.02725   0.80178    0.21524   1.00
C3d      -0.04135   0.71959    0.26914   1.00
C3       -0.08354   0.77908    0.23121   1.00
O2       -0.10248   0.80568    0.20784   1.00
C3       -0.08227   0.72022    0.27047   1.00
H1       -0.09657   0.69735    0.28681   1.00
C2       -0.10439   0.74972    0.25152   1.00
C5       0.02121    0.76594    0.34472   1.00
H2       0.05162    0.76137    0.35532   1.00
H2       0.00734    0.73675    0.34070   1.00
C5       -0.00129   0.78861    0.37568   1.00
H2       -0.03137   0.79413    0.36462   1.00
H2       0.01302    0.81754    0.37971   1.00
C5       -0.00262   0.76600    0.41447   1.00
H2       0.02732    0.76014    0.42555   1.00
H2       -0.01811   0.73770    0.41078   1.00
C5       -0.02445   0.79002    0.44553   1.00
C5       -0.01105   0.66037    0.26674   1.00
C5       -0.11070   0.83991    0.22937   1.00
H2       0.00912    0.66992    0.24317   1.00
H2       -0.03712   0.64640    0.25313   1.00
H2       -0.08300   0.85368    0.23953   1.00
H2       -0.12895   0.83398    0.25579   1.00
H2       -0.19030   0.87938    0.22639   1.00
H2       0.05753    0.61344    0.25239   1.00
H2       0.01237    0.58647    0.24551   1.00
C2       0.10395    0.74953    0.25264   1.00
C3       0.08403    0.73196    0.22115   1.00
O2       0.10326    0.70657    0.19653   1.00
C3       0.08174    0.76858    0.28177   1.00
H1       0.09615    0.78318    0.30572   1.00
C3a      0.04287    0.73289    0.21998   1.00
H1       0.02798    0.71739    0.19688   1.00
C3b      0.04078    0.76838    0.28118   1.00
C4       0.02100    0.75038    0.25018   1.00
O3       -0.02167   0.69190    0.29099   1.00
C5       0.11280    0.72546    0.16121   1.00
H2       0.08609    0.73630    0.14601   1.00
C5       0.13326    0.69546    0.13551   1.00
H2       0.13274    0.75061    0.16647   1.00
H2       0.11068    0.67646    0.12191   1.00
H2       0.15093    0.67637    0.15500   1.00
C5       0.15918    0.71420    0.10396   1.00
H2       0.14176    0.73547    0.08676   1.00
C5       0.17547    0.68296    0.07609   1.00
H2       0.18493    0.72931    0.11714   1.00
C5       0.00983    0.63039    0.29212   1.00
H2       -0.01215   0.61599    0.31125   1.00
H2       0.03048    0.64619    0.31164   1.00
C5       0.03200    0.60002    0.26754   1.00
C5       0.04775    0.56738    0.29408   1.00
H2       -0.19286   0.92018    0.17090   1.00
C5       -0.18912   0.96270    0.21885   1.00
H2       -0.14323   0.94027    0.17997   1.00
C5       -0.03337   0.76400    0.48105   1.00
H2       -0.00551   0.81565    0.45505   1.00
H2       -0.05293   0.80144    0.43272   1.00
C5       0.19503    0.70297    0.04095   1.00
H2       0.19789    0.66437    0.09215   1.00
H2       0.15063    0.66359    0.06541   1.00
H2       0.06398    0.58086    0.31979   1.00
H2       0.02239    0.54906    0.30536   1.00
C5       0.07583    0.54128    0.27066   1.00
H2       -0.20116   0.95025    0.24723   1.00
H2       -0.16571   0.98530    0.22570   1.00
H2       -0.21374   0.97708    0.20172   1.00
H2       -0.01820   0.73463    0.47737   1.00
H2       -0.02229   0.77880    0.50870   1.00
H2       -0.06621   0.75930    0.48339   1.00
H2       0.21111    0.73020    0.05124   1.00
H2       0.21664    0.68199    0.02686   1.00
H2       0.17181    0.71154    0.01873   1.00
H2       0.10693    0.55254    0.27413   1.00
H2       0.07402    0.51007    0.28200   1.00
H2       0.06734    0.54191    0.23852   1.00
C5       0.63218    0.86715    0.29848   1.00
H2       0.64745    0.84776    0.31946   1.00
H2       0.61090    0.88418    0.31603   1.00
C5       0.66194    0.89459    0.27900   1.00
C5       0.67123    0.92955    0.30564   1.00
H2       0.65015    0.90559    0.25081   1.00
O3       0.48000    0.78786    0.19015   1.00
C4       0.52100    0.74962    0.25018   1.00
C3c      0.54243    0.77877    0.26943   1.00
H1       0.52725    0.80178    0.28476   1.00
C3d      0.54135    0.71959    0.23086   1.00
C3       0.58354    0.77908    0.26879   1.00
O2       0.60248    0.80568    0.29216   1.00
C3       0.58227    0.72022    0.22953   1.00
H1       0.59657    0.69735    0.21319   1.00
C2       0.60439    0.74972    0.24848   1.00
C5       0.47879    0.76594    0.15528   1.00
H2       0.44838    0.76137    0.14468   1.00
H2       0.49266    0.73675    0.15930   1.00
C5       0.50129    0.78861    0.12432   1.00
H2       0.53137    0.79413    0.13538   1.00
H2       0.48698    0.81754    0.12029   1.00
C5       0.50262    0.76600    0.08553   1.00
H2       0.47268    0.76014    0.07445   1.00
H2       0.51811    0.73770    0.08922   1.00
C5       0.52445    0.79002    0.05447   1.00
C5       0.51105    0.66037    0.23326   1.00
C5       0.61070    0.83991    0.27063   1.00
H2       0.49088    0.66992    0.25683   1.00
H2       0.53712    0.64640    0.24687   1.00
H2       0.58300    0.85368    0.26047   1.00
H2       0.62895    0.83398    0.24421   1.00
H2       0.69030    0.87938    0.27361   1.00
H2       0.44247    0.61344    0.24761   1.00
H2       0.48763    0.58647    0.25449   1.00
C2       0.39605    0.74953    0.24736   1.00
C3       0.41597    0.73196    0.27885   1.00
O2       0.39674    0.70657    0.30347   1.00
C3       0.41826    0.76858    0.21823   1.00
H1       0.40385    0.78318    0.19428   1.00
C3a      0.45713    0.73289    0.28002   1.00
H1       0.47202    0.71739    0.30312   1.00
C3b      0.45922    0.76838    0.21882   1.00
C4       0.47900    0.75038    0.24982   1.00
O3       0.52167    0.69190    0.20901   1.00
C5       0.38720    0.72546    0.33879   1.00
H2       0.41391    0.73630    0.35399   1.00
C5       0.36674    0.69546    0.36449   1.00
H2       0.36726    0.75061    0.33353   1.00
H2       0.38932    0.67646    0.37809   1.00
H2       0.34907    0.67637    0.34500   1.00
C5       0.34082    0.71420    0.39604   1.00
H2       0.35824    0.73547    0.41324   1.00
C5       0.32453    0.68296    0.42391   1.00
H2       0.31507    0.72931    0.38286   1.00
C5       0.49017    0.63039    0.20788   1.00
H2       0.51215    0.61599    0.18875   1.00
H2       0.46952    0.64619    0.18836   1.00
C5       0.46800    0.60002    0.23246   1.00
C5       0.45225    0.56738    0.20592   1.00
H2       0.69286    0.92018    0.32910   1.00
C5       0.68912    0.96270    0.28115   1.00
H2       0.64323    0.94027    0.32003   1.00
C5       0.53337    0.76400    0.01895   1.00
H2       0.50551    0.81565    0.04495   1.00
H2       0.55293    0.80144    0.06728   1.00
C5       0.30497    0.70297    0.45905   1.00
H2       0.30211    0.66437    0.40785   1.00
H2       0.34937    0.66359    0.43459   1.00
H2       0.43602    0.58086    0.18021   1.00
H2       0.47761    0.54906    0.19464   1.00
C5       0.42417    0.54128    0.22934   1.00
H2       0.70116    0.95025    0.25277   1.00
H2       0.66571    0.98530    0.27430   1.00
H2       0.71374    0.97708    0.29828   1.00
H2       0.51820    0.73463    0.02263   1.00
H2       0.52229    0.77880    -0.00870   1.00
H2       0.56621    0.75930    0.01661   1.00
H2       0.28889    0.73020    0.44876   1.00
H2       0.28336    0.68199    0.47314   1.00
H2       0.32819    0.71154    0.48127   1.00
H2       0.39307    0.55254    0.22587   1.00
H2       0.42598    0.51007    0.21800   1.00
H2       0.43266    0.54191    0.26148   1.00
C5       0.20152    0.36782    0.36715   1.00
H2       0.18054    0.35255    0.34776   1.00
H2       0.18397    0.38910    0.38418   1.00
C5       0.22100    0.33806    0.39459   1.00
C5       0.19436    0.32877    0.42955   1.00
H2       0.24919    0.34985    0.40559   1.00
O3       0.30985    0.52000    0.28786   1.00
C4       0.24982    0.47900    0.24962   1.00
C3c      0.23057    0.45757    0.27877   1.00
H1       0.21524    0.47275    0.30178   1.00
C3d      0.26914    0.45865    0.21959   1.00
C3       0.23121    0.41646    0.27908   1.00
O2       0.20784    0.39752    0.30568   1.00
C3       0.27047    0.41773    0.22022   1.00
H1       0.28681    0.40343    0.19735   1.00
C2       0.25152    0.39561    0.24972   1.00
C5       0.34472    0.52121    0.26594   1.00
H2       0.35532    0.55162    0.26137   1.00
H2       0.34070    0.50734    0.23675   1.00
C5       0.37568    0.49871    0.28861   1.00
H2       0.36462    0.46863    0.29413   1.00
H2       0.37971    0.51302    0.31754   1.00
C5       0.41447    0.49738    0.26600   1.00
H2       0.42555    0.52732    0.26014   1.00
H2       0.41078    0.48189    0.23770   1.00
C5       0.44553    0.47555    0.29002   1.00
C5       0.26674    0.48895    0.16037   1.00
C5       0.22937    0.38930    0.33991   1.00
H2       0.24317    0.50912    0.16992   1.00
H2       0.25313    0.46288    0.14640   1.00
H2       0.23953    0.41700    0.35368   1.00
H2       0.25579    0.37105    0.33398   1.00
H2       0.22639    0.30970    0.37938   1.00
H2       0.25239    0.55753    0.11344   1.00
H2       0.24551    0.51237    0.08647   1.00
C2       0.25264    0.60395    0.24953   1.00
C3       0.22115    0.58403    0.23196   1.00
O2       0.19653    0.60326    0.20657   1.00
C3       0.28177    0.58174    0.26858   1.00
H1       0.30572    0.59615    0.28318   1.00
C3a      0.21998    0.54287    0.23289   1.00
H1       0.19688    0.52798    0.21739   1.00
C3b      0.28118    0.54078    0.26838   1.00
C4       0.25018    0.52100    0.25038   1.00
O3       0.29099    0.47833    0.19190   1.00
C5       0.16121    0.61280    0.22546   1.00
H2       0.14601    0.58609    0.23630   1.00
C5       0.13551    0.63326    0.19546   1.00
H2       0.16647    0.63274    0.25061   1.00
H2       0.12191    0.61068    0.17646   1.00
H2       0.15500    0.65093    0.17637   1.00
C5       0.10396    0.65918    0.21420   1.00
H2       0.08676    0.64176    0.23547   1.00
C5       0.07609    0.67547    0.18296   1.00
H2       0.11714    0.68493    0.22931   1.00
C5       0.29212    0.50983    0.13039   1.00
H2       0.31125    0.48785    0.11599   1.00
H2       0.31164    0.53048    0.14619   1.00
C5       0.26754    0.53200    0.10002   1.00
C5       0.29408    0.54775    0.06738   1.00
H2       0.17090    0.30714    0.42018   1.00
C5       0.21885    0.31088    0.46270   1.00
H2       0.17997    0.35677    0.44027   1.00
C5       0.48105    0.46663    0.26400   1.00
H2       0.45505    0.49449    0.31565   1.00
H2       0.43272    0.44707    0.30144   1.00
C5       0.04095    0.69503    0.20297   1.00
H2       0.09215    0.69789    0.16437   1.00
H2       0.06541    0.65063    0.16359   1.00
H2       0.31979    0.56398    0.08086   1.00
H2       0.30536    0.52239    0.04906   1.00
C5       0.27066    0.57583    0.04128   1.00
H2       0.24723    0.29884    0.45025   1.00
H2       0.22570    0.33429    0.48530   1.00
H2       0.20172    0.28626    0.47708   1.00
H2       0.47737    0.48180    0.23463   1.00
H2       0.50870    0.47771    0.27880   1.00
H2       0.48339    0.43379    0.25930   1.00
H2       0.05124    0.71111    0.23020   1.00
H2       0.02686    0.71664    0.18199   1.00
H2       0.01873    0.67181    0.21154   1.00
H2       0.27413    0.60693    0.05254   1.00
H2       0.28200    0.57402    0.01007   1.00
H2       0.23852    0.56734    0.04191   1.00
C5       0.36715    0.70152    -0.13218   1.00
H2       0.34776    0.68054    -0.14745   1.00
H2       0.38418    0.68397    -0.11090   1.00
C5       0.39459    0.72100    -0.16194   1.00
C5       0.42955    0.69436    -0.17123   1.00
H2       0.40559    0.74919    -0.15015   1.00
O3       0.28786    0.80985    0.02000   1.00
C4       0.24962    0.74982    -0.02100   1.00
C3c      0.27877    0.73057    -0.04243   1.00
H1       0.30178    0.71524    -0.02725   1.00
C3d      0.21959    0.76914    -0.04135   1.00
C3       0.27908    0.73121    -0.08354   1.00
O2       0.30568    0.70784    -0.10248   1.00
C3       0.22022    0.77047    -0.08227   1.00
H1       0.19735    0.78681    -0.09657   1.00
C2       0.24972    0.75152    -0.10439   1.00
C5       0.26594    0.84472    0.02121   1.00
H2       0.26137    0.85532    0.05162   1.00
H2       0.23675    0.84070    0.00734   1.00
C5       0.28861    0.87568    -0.00129   1.00
H2       0.29413    0.86462    -0.03137   1.00
H2       0.31754    0.87971    0.01302   1.00
C5       0.26600    0.91447    -0.00262   1.00
H2       0.26014    0.92555    0.02732   1.00
H2       0.23770    0.91078    -0.01811   1.00
C5       0.29002    0.94553    -0.02445   1.00
C5       0.16037    0.76674    -0.01105   1.00
C5       0.33991    0.72937    -0.11070   1.00
H2       0.16992    0.74317    0.00912   1.00
H2       0.14640    0.75313    -0.03712   1.00
H2       0.35368    0.73953    -0.08300   1.00
H2       0.33398    0.75579    -0.12895   1.00
H2       0.37938    0.72639    -0.19030   1.00
H2       0.11344    0.75239    0.05753   1.00
H2       0.08647    0.74551    0.01237   1.00
C2       0.24953    0.75264    0.10395   1.00
C3       0.23196    0.72115    0.08403   1.00
O2       0.20657    0.69653    0.10326   1.00
C3       0.26858    0.78177    0.08174   1.00
H1       0.28318    0.80572    0.09615   1.00
C3a      0.23289    0.71998    0.04287   1.00
H1       0.21739    0.69688    0.02798   1.00
C3b      0.26838    0.78118    0.04078   1.00
C4       0.25038    0.75018    0.02100   1.00
O3       0.19190    0.79099    -0.02167   1.00
C5       0.22546    0.66121    0.11280   1.00
H2       0.23630    0.64601    0.08609   1.00
C5       0.19546    0.63551    0.13326   1.00
H2       0.25061    0.66647    0.13274   1.00
H2       0.17646    0.62191    0.11068   1.00
H2       0.17637    0.65500    0.15093   1.00
C5       0.21420    0.60396    0.15918   1.00
H2       0.23547    0.58676    0.14176   1.00
C5       0.18296    0.57609    0.17547   1.00
H2       0.22931    0.61714    0.18493   1.00
C5       0.13039    0.79212    0.00983   1.00
H2       0.11599    0.81125    -0.01215   1.00
H2       0.14619    0.81164    0.03048   1.00
C5       0.10002    0.76754    0.03200   1.00
C5       0.06738    0.79408    0.04775   1.00
H2       0.42018    0.67090    -0.19286   1.00
C5       0.46270    0.71885    -0.18912   1.00
H2       0.44027    0.67997    -0.14323   1.00
C5       0.26400    0.98105    -0.03337   1.00
H2       0.31565    0.95505    -0.00551   1.00
H2       0.30144    0.93272    -0.05293   1.00
C5       0.20297    0.54095    0.19503   1.00
H2       0.16437    0.59215    0.19789   1.00
H2       0.16359    0.56541    0.15063   1.00
H2       0.08086    0.81979    0.06398   1.00
H2       0.04906    0.80536    0.02239   1.00
C5       0.04128    0.77066    0.07583   1.00
H2       0.45025    0.74723    -0.20116   1.00
H2       0.48530    0.72570    -0.16571   1.00
H2       0.47708    0.70172    -0.21374   1.00
H2       0.23463    0.97737    -0.01820   1.00
H2       0.27880    1.00870    -0.02229   1.00
H2       0.25930    0.98339    -0.06621   1.00
H2       0.23020    0.55124    0.21111   1.00
H2       0.18199    0.52686    0.21664   1.00
H2       0.21154    0.51873    0.17181   1.00
H2       0.05254    0.77413    0.10693   1.00
H2       0.01007    0.78200    0.07402   1.00
H2       0.04191    0.73852    0.06734   1.00
C5       0.86715    0.29848    0.63218   1.00
H2       0.84776    0.31946    0.64745   1.00
H2       0.88418    0.31603    0.61090   1.00
C5       0.89459    0.27900    0.66194   1.00
C5       0.92955    0.30564    0.67123   1.00
H2       0.90559    0.25081    0.65015   1.00
O3       0.78786    0.19015    0.48000   1.00
C4       0.74962    0.25018    0.52100   1.00
C3c      0.77877    0.26943    0.54243   1.00
H1       0.80178    0.28476    0.52725   1.00
C3d      0.71959    0.23086    0.54135   1.00
C3       0.77908    0.26879    0.58354   1.00
O2       0.80568    0.29216    0.60248   1.00
C3       0.72022    0.22953    0.58227   1.00
H1       0.69735    0.21319    0.59657   1.00
C2       0.74972    0.24848    0.60439   1.00
C5       0.76594    0.15528    0.47879   1.00
H2       0.76137    0.14468    0.44838   1.00
H2       0.73675    0.15930    0.49266   1.00
C5       0.78861    0.12432    0.50129   1.00
H2       0.79413    0.13538    0.53137   1.00
H2       0.81754    0.12029    0.48698   1.00
C5       0.76600    0.08553    0.50262   1.00
H2       0.76014    0.07445    0.47268   1.00
H2       0.73770    0.08922    0.51811   1.00
C5       0.79002    0.05447    0.52445   1.00
C5       0.66037    0.23326    0.51105   1.00
C5       0.83991    0.27063    0.61070   1.00
H2       0.66992    0.25683    0.49088   1.00
H2       0.64640    0.24687    0.53712   1.00
H2       0.85368    0.26047    0.58300   1.00
H2       0.83398    0.24421    0.62895   1.00
H2       0.87938    0.27361    0.69030   1.00
H2       0.61344    0.24761    0.44247   1.00
H2       0.58647    0.25449    0.48763   1.00
C2       0.74953    0.24736    0.39605   1.00
C3       0.73196    0.27885    0.41597   1.00
O2       0.70657    0.30347    0.39674   1.00
C3       0.76858    0.21823    0.41826   1.00
H1       0.78318    0.19428    0.40385   1.00
C3a      0.73289    0.28002    0.45713   1.00
H1       0.71739    0.30312    0.47202   1.00
C3b      0.76838    0.21882    0.45922   1.00
C4       0.75038    0.24982    0.47900   1.00
O3       0.69190    0.20901    0.52167   1.00
C5       0.72546    0.33879    0.38720   1.00
H2       0.73630    0.35399    0.41391   1.00
C5       0.69546    0.36449    0.36674   1.00
H2       0.75061    0.33353    0.36726   1.00
H2       0.67646    0.37809    0.38932   1.00
H2       0.67637    0.34500    0.34907   1.00
C5       0.71420    0.39604    0.34082   1.00
H2       0.73547    0.41324    0.35824   1.00
C5       0.68296    0.42391    0.32453   1.00
H2       0.72931    0.38286    0.31507   1.00
C5       0.63039    0.20788    0.49017   1.00
H2       0.61599    0.18875    0.51215   1.00
H2       0.64619    0.18836    0.46952   1.00
C5       0.60002    0.23246    0.46800   1.00
C5       0.56738    0.20592    0.45225   1.00
H2       0.92018    0.32910    0.69286   1.00
C5       0.96270    0.28115    0.68912   1.00
H2       0.94027    0.32003    0.64323   1.00
C5       0.76400    0.01895    0.53337   1.00
H2       0.81565    0.04495    0.50551   1.00
H2       0.80144    0.06728    0.55293   1.00
C5       0.70297    0.45905    0.30497   1.00
H2       0.66437    0.40785    0.30211   1.00
H2       0.66359    0.43459    0.34937   1.00
H2       0.58086    0.18021    0.43602   1.00
H2       0.54906    0.19464    0.47761   1.00
C5       0.54128    0.22934    0.42417   1.00
H2       0.95025    0.25277    0.70116   1.00
H2       0.98530    0.27430    0.66571   1.00
H2       0.97708    0.29828    0.71374   1.00
H2       0.73463    0.02263    0.51820   1.00
H2       0.77880    -0.00870   0.52229   1.00
H2       0.75930    0.01661    0.56621   1.00
H2       0.73020    0.44876    0.28889   1.00
H2       0.68199    0.47314    0.28336   1.00
H2       0.71154    0.48127    0.32819   1.00
H2       0.55254    0.22587    0.39307   1.00
H2       0.51007    0.21800    0.42598   1.00
H2       0.54191    0.26148    0.43266   1.00
C5       0.79848    0.63218    0.36715   1.00
H2       0.81946    0.64745    0.34776   1.00
H2       0.81603    0.61090    0.38418   1.00
C5       0.77900    0.66194    0.39459   1.00
C5       0.80564    0.67123    0.42955   1.00
H2       0.75081    0.65015    0.40559   1.00
O3       0.69015    0.48000    0.28786   1.00
C4       0.75018    0.52100    0.24962   1.00
C3c      0.76943    0.54243    0.27877   1.00
H1       0.78476    0.52725    0.30178   1.00
C3d      0.73086    0.54135    0.21959   1.00
C3       0.76879    0.58354    0.27908   1.00
O2       0.79216    0.60248    0.30568   1.00
C3       0.72953    0.58227    0.22022   1.00
H1       0.71319    0.59657    0.19735   1.00
C2       0.74848    0.60439    0.24972   1.00
C5       0.65528    0.47879    0.26594   1.00
H2       0.64468    0.44838    0.26137   1.00
H2       0.65930    0.49266    0.23675   1.00
C5       0.62432    0.50129    0.28861   1.00
H2       0.63538    0.53137    0.29413   1.00
H2       0.62029    0.48698    0.31754   1.00
C5       0.58553    0.50262    0.26600   1.00
H2       0.57445    0.47268    0.26014   1.00
H2       0.58922    0.51811    0.23770   1.00
C5       0.55447    0.52445    0.29002   1.00
C5       0.73326    0.51105    0.16037   1.00
C5       0.77063    0.61070    0.33991   1.00
H2       0.75683    0.49088    0.16992   1.00
H2       0.74687    0.53712    0.14640   1.00
H2       0.76047    0.58300    0.35368   1.00
H2       0.74421    0.62895    0.33398   1.00
H2       0.77361    0.69030    0.37938   1.00
H2       0.74761    0.44247    0.11344   1.00
H2       0.75449    0.48763    0.08647   1.00
C2       0.74736    0.39605    0.24953   1.00
C3       0.77885    0.41597    0.23196   1.00
O2       0.80347    0.39674    0.20657   1.00
C3       0.71823    0.41826    0.26858   1.00
H1       0.69428    0.40385    0.28318   1.00
C3a      0.78002    0.45713    0.23289   1.00
H1       0.80312    0.47202    0.21739   1.00
C3b      0.71882    0.45922    0.26838   1.00
C4       0.74982    0.47900    0.25038   1.00
O3       0.70901    0.52167    0.19190   1.00
C5       0.83879    0.38720    0.22546   1.00
H2       0.85399    0.41391    0.23630   1.00
C5       0.86449    0.36674    0.19546   1.00
H2       0.83353    0.36726    0.25061   1.00
H2       0.87809    0.38932    0.17646   1.00
H2       0.84500    0.34907    0.17637   1.00
C5       0.89604    0.34082    0.21420   1.00
H2       0.91324    0.35824    0.23547   1.00
C5       0.92391    0.32453    0.18296   1.00
H2       0.88286    0.31507    0.22931   1.00
C5       0.70788    0.49017    0.13039   1.00
H2       0.68875    0.51215    0.11599   1.00
H2       0.68836    0.46952    0.14619   1.00
C5       0.73246    0.46800    0.10002   1.00
C5       0.70592    0.45225    0.06738   1.00
H2       0.82910    0.69286    0.42018   1.00
C5       0.78115    0.68912    0.46270   1.00
H2       0.82003    0.64323    0.44027   1.00
C5       0.51895    0.53337    0.26400   1.00
H2       0.54495    0.50551    0.31565   1.00
H2       0.56728    0.55293    0.30144   1.00
C5       0.95905    0.30497    0.20297   1.00
H2       0.90785    0.30211    0.16437   1.00
H2       0.93459    0.34937    0.16359   1.00
H2       0.68021    0.43602    0.08086   1.00
H2       0.69464    0.47761    0.04906   1.00
C5       0.72934    0.42417    0.04128   1.00
H2       0.75277    0.70116    0.45025   1.00
H2       0.77430    0.66571    0.48530   1.00
H2       0.79828    0.71374    0.47708   1.00
H2       0.52263    0.51820    0.23463   1.00
H2       0.49130    0.52229    0.27880   1.00
H2       0.51661    0.56621    0.25930   1.00
H2       0.94876    0.28889    0.23020   1.00
H2       0.97314    0.28336    0.18199   1.00
H2       0.98127    0.32819    0.21154   1.00
H2       0.72587    0.39307    0.05254   1.00
H2       0.71800    0.42598    0.01007   1.00
H2       0.76148    0.43266    0.04191   1.00
C5       0.36782    0.36715    0.20152   1.00
H2       0.35255    0.34776    0.18054   1.00
H2       0.38910    0.38418    0.18397   1.00
C5       0.33806    0.39459    0.22100   1.00
C5       0.32877    0.42955    0.19436   1.00
H2       0.34985    0.40559    0.24919   1.00
O3       0.52000    0.28786    0.30985   1.00
C4       0.47900    0.24962    0.24982   1.00
C3c      0.45757    0.27877    0.23057   1.00
H1       0.47275    0.30178    0.21524   1.00
C3d      0.45865    0.21959    0.26914   1.00
C3       0.41646    0.27908    0.23121   1.00
O2       0.39752    0.30568    0.20784   1.00
C3       0.41773    0.22022    0.27047   1.00
H1       0.40343    0.19735    0.28681   1.00
C2       0.39561    0.24972    0.25152   1.00
C5       0.52121    0.26594    0.34472   1.00
H2       0.55162    0.26137    0.35532   1.00
H2       0.50734    0.23675    0.34070   1.00
C5       0.49871    0.28861    0.37568   1.00
H2       0.46863    0.29413    0.36462   1.00
H2       0.51302    0.31754    0.37971   1.00
C5       0.49738    0.26600    0.41447   1.00
H2       0.52732    0.26014    0.42555   1.00
H2       0.48189    0.23770    0.41078   1.00
C5       0.47555    0.29002    0.44553   1.00
C5       0.48895    0.16037    0.26674   1.00
C5       0.38930    0.33991    0.22937   1.00
H2       0.50912    0.16992    0.24317   1.00
H2       0.46288    0.14640    0.25313   1.00
H2       0.41700    0.35368    0.23953   1.00
H2       0.37105    0.33398    0.25579   1.00
H2       0.30970    0.37938    0.22639   1.00
H2       0.55753    0.11344    0.25239   1.00
H2       0.51237    0.08647    0.24551   1.00
C2       0.60395    0.24953    0.25264   1.00
C3       0.58403    0.23196    0.22115   1.00
O2       0.60326    0.20657    0.19653   1.00
C3       0.58174    0.26858    0.28177   1.00
H1       0.59615    0.28318    0.30572   1.00
C3a      0.54287    0.23289    0.21998   1.00
H1       0.52798    0.21739    0.19688   1.00
C3b      0.54078    0.26838    0.28118   1.00
C4       0.52100    0.25038    0.25018   1.00
O3       0.47833    0.19190    0.29099   1.00
C5       0.61280    0.22546    0.16121   1.00
H2       0.58609    0.23630    0.14601   1.00
C5       0.63326    0.19546    0.13551   1.00
H2       0.63274    0.25061    0.16647   1.00
H2       0.61068    0.17646    0.12191   1.00
H2       0.65093    0.17637    0.15500   1.00
C5       0.65918    0.21420    0.10396   1.00
H2       0.64176    0.23547    0.08676   1.00
C5       0.67547    0.18296    0.07609   1.00
H2       0.68493    0.22931    0.11714   1.00
C5       0.50983    0.13039    0.29212   1.00
H2       0.48785    0.11599    0.31125   1.00
H2       0.53048    0.14619    0.31164   1.00
C5       0.53200    0.10002    0.26754   1.00
C5       0.54775    0.06738    0.29408   1.00
H2       0.30714    0.42018    0.17090   1.00
C5       0.31088    0.46270    0.21885   1.00
H2       0.35677    0.44027    0.17997   1.00
C5       0.46663    0.26400    0.48105   1.00
H2       0.49449    0.31565    0.45505   1.00
H2       0.44707    0.30144    0.43272   1.00
C5       0.69503    0.20297    0.04095   1.00
H2       0.69789    0.16437    0.09215   1.00
H2       0.65063    0.16359    0.06541   1.00
H2       0.56398    0.08086    0.31979   1.00
H2       0.52239    0.04906    0.30536   1.00
C5       0.57583    0.04128    0.27066   1.00
H2       0.29884    0.45025    0.24723   1.00
H2       0.33429    0.48530    0.22570   1.00
H2       0.28626    0.47708    0.20172   1.00
H2       0.48180    0.23463    0.47737   1.00
H2       0.47771    0.27880    0.50870   1.00
H2       0.43379    0.25930    0.48339   1.00
H2       0.71111    0.23020    0.05124   1.00
H2       0.71664    0.18199    0.02686   1.00
H2       0.67181    0.21154    0.01873   1.00
H2       0.60693    0.05254    0.27413   1.00
H2       0.57402    0.01007    0.28200   1.00
H2       0.56734    0.04191    0.23852   1.00
C5       1.13218    0.36715    0.29848   1.00
H2       1.14745    0.34776    0.31946   1.00
H2       1.11090    0.38418    0.31603   1.00
C5       1.16194    0.39459    0.27900   1.00
C5       1.17123    0.42955    0.30564   1.00
H2       1.15015    0.40559    0.25081   1.00
O3       0.98000    0.28786    0.19015   1.00
C4       1.02100    0.24962    0.25018   1.00
C3c      1.04243    0.27877    0.26943   1.00
H1       1.02725    0.30178    0.28476   1.00
C3d      1.04135    0.21959    0.23086   1.00
C3       1.08354    0.27908    0.26879   1.00
O2       1.10248    0.30568    0.29216   1.00
C3       1.08227    0.22022    0.22953   1.00
H1       1.09657    0.19735    0.21319   1.00
C2       1.10439    0.24972    0.24848   1.00
C5       0.97879    0.26594    0.15528   1.00
H2       0.94838    0.26137    0.14468   1.00
H2       0.99266    0.23675    0.15930   1.00
C5       1.00129    0.28861    0.12432   1.00
H2       1.03137    0.29413    0.13538   1.00
H2       0.98698    0.31754    0.12029   1.00
C5       1.00262    0.26600    0.08553   1.00
H2       0.97268    0.26014    0.07445   1.00
H2       1.01811    0.23770    0.08922   1.00
C5       1.02445    0.29002    0.05447   1.00
C5       1.01105    0.16037    0.23326   1.00
C5       1.11070    0.33991    0.27063   1.00
H2       0.99088    0.16992    0.25683   1.00
H2       1.03712    0.14640    0.24687   1.00
H2       1.08300    0.35368    0.26047   1.00
H2       1.12895    0.33398    0.24421   1.00
H2       1.19030    0.37938    0.27361   1.00
H2       0.94247    0.11344    0.24761   1.00
H2       0.98763    0.08647    0.25449   1.00
C2       0.89605    0.24953    0.24736   1.00
C3       0.91597    0.23196    0.27885   1.00
O2       0.89674    0.20657    0.30347   1.00
C3       0.91826    0.26858    0.21823   1.00
H1       0.90385    0.28318    0.19428   1.00
C3a      0.95713    0.23289    0.28002   1.00
H1       0.97202    0.21739    0.30312   1.00
C3b      0.95922    0.26838    0.21882   1.00
C4       0.97900    0.25038    0.24982   1.00
O3       1.02167    0.19190    0.20901   1.00
C5       0.88720    0.22546    0.33879   1.00
H2       0.91391    0.23630    0.35399   1.00
C5       0.86674    0.19546    0.36449   1.00
H2       0.86726    0.25061    0.33353   1.00
H2       0.88932    0.17646    0.37809   1.00
H2       0.84907    0.17637    0.34500   1.00
C5       0.84082    0.21420    0.39604   1.00
H2       0.85824    0.23547    0.41324   1.00
C5       0.82453    0.18296    0.42391   1.00
H2       0.81507    0.22931    0.38286   1.00
C5       0.99017    0.13039    0.20788   1.00
H2       1.01215    0.11599    0.18875   1.00
H2       0.96952    0.14619    0.18836   1.00
C5       0.96800    0.10002    0.23246   1.00
C5       0.95225    0.06738    0.20592   1.00
H2       1.19286    0.42018    0.32910   1.00
C5       1.18912    0.46270    0.28115   1.00
H2       1.14323    0.44027    0.32003   1.00
C5       1.03337    0.26400    0.01895   1.00
H2       1.00551    0.31565    0.04495   1.00
H2       1.05293    0.30144    0.06728   1.00
C5       0.80497    0.20297    0.45905   1.00
H2       0.80211    0.16437    0.40785   1.00
H2       0.84937    0.16359    0.43459   1.00
H2       0.93602    0.08086    0.18021   1.00
H2       0.97761    0.04906    0.19464   1.00
C5       0.92417    0.04128    0.22934   1.00
H2       1.20116    0.45025    0.25277   1.00
H2       1.16571    0.48530    0.27430   1.00
H2       1.21374    0.47708    0.29828   1.00
H2       1.01820    0.23463    0.02263   1.00
H2       1.02229    0.27880    -0.00870   1.00
H2       1.06621    0.25930    0.01661   1.00
H2       0.78889    0.23020    0.44876   1.00
H2       0.78336    0.18199    0.47314   1.00
H2       0.82819    0.21154    0.48127   1.00
H2       0.89307    0.05254    0.22587   1.00
H2       0.92598    0.01007    0.21800   1.00
H2       0.93266    0.04191    0.26148   1.00
C5       0.70152    -0.13218   0.36715   1.00
H2       0.68054    -0.14745   0.34776   1.00
H2       0.68397    -0.11090   0.38418   1.00
C5       0.72100    -0.16194   0.39459   1.00
C5       0.69436    -0.17123   0.42955   1.00
H2       0.74919    -0.15015   0.40559   1.00
O3       0.80985    0.02000    0.28786   1.00
C4       0.74982    -0.02100   0.24962   1.00
C3c      0.73057    -0.04243   0.27877   1.00
H1       0.71524    -0.02725   0.30178   1.00
C3d      0.76914    -0.04135   0.21959   1.00
C3       0.73121    -0.08354   0.27908   1.00
O2       0.70784    -0.10248   0.30568   1.00
C3       0.77047    -0.08227   0.22022   1.00
H1       0.78681    -0.09657   0.19735   1.00
C2       0.75152    -0.10439   0.24972   1.00
C5       0.84472    0.02121    0.26594   1.00
H2       0.85532    0.05162    0.26137   1.00
H2       0.84070    0.00734    0.23675   1.00
C5       0.87568    -0.00129   0.28861   1.00
H2       0.86462    -0.03137   0.29413   1.00
H2       0.87971    0.01302    0.31754   1.00
C5       0.91447    -0.00262   0.26600   1.00
H2       0.92555    0.02732    0.26014   1.00
H2       0.91078    -0.01811   0.23770   1.00
C5       0.94553    -0.02445   0.29002   1.00
C5       0.76674    -0.01105   0.16037   1.00
C5       0.72937    -0.11070   0.33991   1.00
H2       0.74317    0.00912    0.16992   1.00
H2       0.75313    -0.03712   0.14640   1.00
H2       0.73953    -0.08300   0.35368   1.00
H2       0.75579    -0.12895   0.33398   1.00
H2       0.72639    -0.19030   0.37938   1.00
H2       0.75239    0.05753    0.11344   1.00
H2       0.74551    0.01237    0.08647   1.00
C2       0.75264    0.10395    0.24953   1.00
C3       0.72115    0.08403    0.23196   1.00
O2       0.69653    0.10326    0.20657   1.00
C3       0.78177    0.08174    0.26858   1.00
H1       0.80572    0.09615    0.28318   1.00
C3a      0.71998    0.04287    0.23289   1.00
H1       0.69688    0.02798    0.21739   1.00
C3b      0.78118    0.04078    0.26838   1.00
C4       0.75018    0.02100    0.25038   1.00
O3       0.79099    -0.02167   0.19190   1.00
C5       0.66121    0.11280    0.22546   1.00
H2       0.64601    0.08609    0.23630   1.00
C5       0.63551    0.13326    0.19546   1.00
H2       0.66647    0.13274    0.25061   1.00
H2       0.62191    0.11068    0.17646   1.00
H2       0.65500    0.15093    0.17637   1.00
C5       0.60396    0.15918    0.21420   1.00
H2       0.58676    0.14176    0.23547   1.00
C5       0.57609    0.17547    0.18296   1.00
H2       0.61714    0.18493    0.22931   1.00
C5       0.79212    0.00983    0.13039   1.00
H2       0.81125    -0.01215   0.11599   1.00
H2       0.81164    0.03048    0.14619   1.00
C5       0.76754    0.03200    0.10002   1.00
C5       0.79408    0.04775    0.06738   1.00
H2       0.67090    -0.19286   0.42018   1.00
C5       0.71885    -0.18912   0.46270   1.00
H2       0.67997    -0.14323   0.44027   1.00
C5       0.98105    -0.03337   0.26400   1.00
H2       0.95505    -0.00551   0.31565   1.00
H2       0.93272    -0.05293   0.30144   1.00
C5       0.54095    0.19503    0.20297   1.00
H2       0.59215    0.19789    0.16437   1.00
H2       0.56541    0.15063    0.16359   1.00
H2       0.81979    0.06398    0.08086   1.00
H2       0.80536    0.02239    0.04906   1.00
C5       0.77066    0.07583    0.04128   1.00
H2       0.74723    -0.20116   0.45025   1.00
H2       0.72570    -0.16571   0.48530   1.00
H2       0.70172    -0.21374   0.47708   1.00
H2       0.97737    -0.01820   0.23463   1.00
H2       1.00870    -0.02229   0.27880   1.00
H2       0.98339    -0.06621   0.25930   1.00
H2       0.55124    0.21111    0.23020   1.00
H2       0.52686    0.21664    0.18199   1.00
H2       0.51873    0.17181    0.21154   1.00
H2       0.77413    0.10693    0.05254   1.00
H2       0.78200    0.07402    0.01007   1.00
H2       0.73852    0.06734    0.04191   1.00
C5       0.86715    0.20152    -0.13218   1.00
H2       0.84776    0.18054    -0.14745   1.00
H2       0.88418    0.18397    -0.11090   1.00
C5       0.89459    0.22100    -0.16194   1.00
C5       0.92955    0.19436    -0.17123   1.00
H2       0.90559    0.24919    -0.15015   1.00
O3       0.78786    0.30985    0.02000   1.00
C4       0.74962    0.24982    -0.02100   1.00
C3c      0.77877    0.23057    -0.04243   1.00
H1       0.80178    0.21524    -0.02725   1.00
C3d      0.71959    0.26914    -0.04135   1.00
C3       0.77908    0.23121    -0.08354   1.00
O2       0.80568    0.20784    -0.10248   1.00
C3       0.72022    0.27047    -0.08227   1.00
H1       0.69735    0.28681    -0.09657   1.00
C2       0.74972    0.25152    -0.10439   1.00
C5       0.76594    0.34472    0.02121   1.00
H2       0.76137    0.35532    0.05162   1.00
H2       0.73675    0.34070    0.00734   1.00
C5       0.78861    0.37568    -0.00129   1.00
H2       0.79413    0.36462    -0.03137   1.00
H2       0.81754    0.37971    0.01302   1.00
C5       0.76600    0.41447    -0.00262   1.00
H2       0.76014    0.42555    0.02732   1.00
H2       0.73770    0.41078    -0.01811   1.00
C5       0.79002    0.44553    -0.02445   1.00
C5       0.66037    0.26674    -0.01105   1.00
C5       0.83991    0.22937    -0.11070   1.00
H2       0.66992    0.24317    0.00912   1.00
H2       0.64640    0.25313    -0.03712   1.00
H2       0.85368    0.23953    -0.08300   1.00
H2       0.83398    0.25579    -0.12895   1.00
H2       0.87938    0.22639    -0.19030   1.00
H2       0.61344    0.25239    0.05753   1.00
H2       0.58647    0.24551    0.01237   1.00
C2       0.74953    0.25264    0.10395   1.00
C3       0.73196    0.22115    0.08403   1.00
O2       0.70657    0.19653    0.10326   1.00
C3       0.76858    0.28177    0.08174   1.00
H1       0.78318    0.30572    0.09615   1.00
C3a      0.73289    0.21998    0.04287   1.00
H1       0.71739    0.19688    0.02798   1.00
C3b      0.76838    0.28118    0.04078   1.00
C4       0.75038    0.25018    0.02100   1.00
O3       0.69190    0.29099    -0.02167   1.00
C5       0.72546    0.16121    0.11280   1.00
H2       0.73630    0.14601    0.08609   1.00
C5       0.69546    0.13551    0.13326   1.00
H2       0.75061    0.16647    0.13274   1.00
H2       0.67646    0.12191    0.11068   1.00
H2       0.67637    0.15500    0.15093   1.00
C5       0.71420    0.10396    0.15918   1.00
H2       0.73547    0.08676    0.14176   1.00
C5       0.68296    0.07609    0.17547   1.00
H2       0.72931    0.11714    0.18493   1.00
C5       0.63039    0.29212    0.00983   1.00
H2       0.61599    0.31125    -0.01215   1.00
H2       0.64619    0.31164    0.03048   1.00
C5       0.60002    0.26754    0.03200   1.00
C5       0.56738    0.29408    0.04775   1.00
H2       0.92018    0.17090    -0.19286   1.00
C5       0.96270    0.21885    -0.18912   1.00
H2       0.94027    0.17997    -0.14323   1.00
C5       0.76400    0.48105    -0.03337   1.00
H2       0.81565    0.45505    -0.00551   1.00
H2       0.80144    0.43272    -0.05293   1.00
C5       0.70297    0.04095    0.19503   1.00
H2       0.66437    0.09215    0.19789   1.00
H2       0.66359    0.06541    0.15063   1.00
H2       0.58086    0.31979    0.06398   1.00
H2       0.54906    0.30536    0.02239   1.00
C5       0.54128    0.27066    0.07583   1.00
H2       0.95025    0.24723    -0.20116   1.00
H2       0.98530    0.22570    -0.16571   1.00
H2       0.97708    0.20172    -0.21374   1.00
H2       0.73463    0.47737    -0.01820   1.00
H2       0.77880    0.50870    -0.02229   1.00
H2       0.75930    0.48339    -0.06621   1.00
H2       0.73020    0.05124    0.21111   1.00
H2       0.68199    0.02686    0.21664   1.00
H2       0.71154    0.01873    0.17181   1.00
H2       0.55254    0.27413    0.10693   1.00
H2       0.51007    0.28200    0.07402   1.00
H2       0.54191    0.23852    0.06734   1.00
