data_IRMOF10_SG202_Ligand6_label_e.

_audit_creation_method             'generated by an auxiliary program of Tobunporous'

_symmetry_space_group_name_H-M     'P 1'
_symmetry_Int_Tables_number        1
_symmetry_cell_setting             triclinic

_cell_length_a                    34.2800
_cell_length_b                    34.2800
_cell_length_c                    34.2800
_cell_angle_alpha                 90.0000
_cell_angle_beta                  90.0000
_cell_angle_gamma                 90.0000

loop_
_atom_site_label
_atom_site_fract_x
_atom_site_fract_y
_atom_site_fract_z
_atom_site_occupancy
O1       0.75000    0.75000    0.75000   1.00
Zn1      0.71720    0.78280    0.78280   1.00
Zn1      0.78280    0.71720    0.78280   1.00
Zn1      0.78280    0.78280    0.71720   1.00
Zn1      0.71720    0.71720    0.71720   1.00
O2       0.72650    0.77350    0.83820   1.00
O2       0.72650    0.83820    0.77350   1.00
O2       0.66180    0.77350    0.77350   1.00
O2       0.77350    0.72650    0.83820   1.00
O2       0.83820    0.72650    0.77350   1.00
O2       0.77350    0.66180    0.77350   1.00
O2       0.77350    0.83820    0.72650   1.00
O2       0.83820    0.77350    0.72650   1.00
O2       0.77350    0.77350    0.66180   1.00
O2       0.66180    0.72650    0.72650   1.00
O2       0.72650    0.66180    0.72650   1.00
O2       0.72650    0.72650    0.66180   1.00
C1       0.75000    0.75000    0.85520   1.00
C1       0.75000    0.85520    0.75000   1.00
C1       0.64480    0.75000    0.75000   1.00
C1       0.85520    0.75000    0.75000   1.00
C1       0.75000    0.64480    0.75000   1.00
C1       0.75000    0.75000    0.64480   1.00
O1       0.25000    0.25000    0.75000   1.00
Zn1      0.21720    0.28280    0.78280   1.00
Zn1      0.28280    0.21720    0.78280   1.00
Zn1      0.28280    0.28280    0.71720   1.00
Zn1      0.21720    0.21720    0.71720   1.00
O2       0.22650    0.27350    0.83820   1.00
O2       0.22650    0.33820    0.77350   1.00
O2       0.16180    0.27350    0.77350   1.00
O2       0.27350    0.22650    0.83820   1.00
O2       0.33820    0.22650    0.77350   1.00
O2       0.27350    0.16180    0.77350   1.00
O2       0.27350    0.33820    0.72650   1.00
O2       0.33820    0.27350    0.72650   1.00
O2       0.27350    0.27350    0.66180   1.00
O2       0.16180    0.22650    0.72650   1.00
O2       0.22650    0.16180    0.72650   1.00
O2       0.22650    0.22650    0.66180   1.00
C1       0.25000    0.25000    0.85520   1.00
C1       0.25000    0.35520    0.75000   1.00
C1       0.14480    0.25000    0.75000   1.00
C1       0.35520    0.25000    0.75000   1.00
C1       0.25000    0.14480    0.75000   1.00
C1       0.25000    0.25000    0.64480   1.00
O1       0.25000    0.75000    0.25000   1.00
Zn1      0.21720    0.78280    0.28280   1.00
Zn1      0.28280    0.71720    0.28280   1.00
Zn1      0.28280    0.78280    0.21720   1.00
Zn1      0.21720    0.71720    0.21720   1.00
O2       0.22650    0.77350    0.33820   1.00
O2       0.22650    0.83820    0.27350   1.00
O2       0.16180    0.77350    0.27350   1.00
O2       0.27350    0.72650    0.33820   1.00
O2       0.33820    0.72650    0.27350   1.00
O2       0.27350    0.66180    0.27350   1.00
O2       0.27350    0.83820    0.22650   1.00
O2       0.33820    0.77350    0.22650   1.00
O2       0.27350    0.77350    0.16180   1.00
O2       0.16180    0.72650    0.22650   1.00
O2       0.22650    0.66180    0.22650   1.00
O2       0.22650    0.72650    0.16180   1.00
C1       0.25000    0.75000    0.35520   1.00
C1       0.25000    0.85520    0.25000   1.00
C1       0.14480    0.75000    0.25000   1.00
C1       0.35520    0.75000    0.25000   1.00
C1       0.25000    0.64480    0.25000   1.00
C1       0.25000    0.75000    0.14480   1.00
O1       0.75000    0.25000    0.25000   1.00
Zn1      0.71720    0.28280    0.28280   1.00
Zn1      0.78280    0.21720    0.28280   1.00
Zn1      0.78280    0.28280    0.21720   1.00
Zn1      0.71720    0.21720    0.21720   1.00
O2       0.72650    0.27350    0.33820   1.00
O2       0.72650    0.33820    0.27350   1.00
O2       0.66180    0.27350    0.27350   1.00
O2       0.77350    0.22650    0.33820   1.00
O2       0.83820    0.22650    0.27350   1.00
O2       0.77350    0.16180    0.27350   1.00
O2       0.77350    0.33820    0.22650   1.00
O2       0.83820    0.27350    0.22650   1.00
O2       0.77350    0.27350    0.16180   1.00
O2       0.66180    0.22650    0.22650   1.00
O2       0.72650    0.16180    0.22650   1.00
O2       0.72650    0.22650    0.16180   1.00
C1       0.75000    0.25000    0.35520   1.00
C1       0.75000    0.35520    0.25000   1.00
C1       0.64480    0.25000    0.25000   1.00
C1       0.85520    0.25000    0.25000   1.00
C1       0.75000    0.14480    0.25000   1.00
C1       0.75000    0.25000    0.14480   1.00
O1       0.25000    0.25000    0.25000   1.00
Zn1      0.28280    0.21720    0.21720   1.00
Zn1      0.21720    0.28280    0.21720   1.00
Zn1      0.21720    0.21720    0.28280   1.00
Zn1      0.28280    0.28280    0.28280   1.00
O2       0.27350    0.22650    0.16180   1.00
O2       0.27350    0.16180    0.22650   1.00
O2       0.33820    0.22650    0.22650   1.00
O2       0.22650    0.27350    0.16180   1.00
O2       0.16180    0.27350    0.22650   1.00
O2       0.22650    0.33820    0.22650   1.00
O2       0.22650    0.16180    0.27350   1.00
O2       0.16180    0.22650    0.27350   1.00
O2       0.22650    0.22650    0.33820   1.00
O2       0.33820    0.27350    0.27350   1.00
O2       0.27350    0.33820    0.27350   1.00
O2       0.27350    0.27350    0.33820   1.00
C1       0.25000    0.25000    0.14480   1.00
C1       0.25000    0.14480    0.25000   1.00
C1       0.35520    0.25000    0.25000   1.00
C1       0.14480    0.25000    0.25000   1.00
C1       0.25000    0.35520    0.25000   1.00
C1       0.25000    0.25000    0.35520   1.00
O1       0.75000    0.75000    0.25000   1.00
Zn1      0.78280    0.71720    0.21720   1.00
Zn1      0.71720    0.78280    0.21720   1.00
Zn1      0.71720    0.71720    0.28280   1.00
Zn1      0.78280    0.78280    0.28280   1.00
O2       0.77350    0.72650    0.16180   1.00
O2       0.77350    0.66180    0.22650   1.00
O2       0.83820    0.72650    0.22650   1.00
O2       0.72650    0.77350    0.16180   1.00
O2       0.66180    0.77350    0.22650   1.00
O2       0.72650    0.83820    0.22650   1.00
O2       0.72650    0.66180    0.27350   1.00
O2       0.66180    0.72650    0.27350   1.00
O2       0.72650    0.72650    0.33820   1.00
O2       0.83820    0.77350    0.27350   1.00
O2       0.77350    0.83820    0.27350   1.00
O2       0.77350    0.77350    0.33820   1.00
C1       0.75000    0.75000    0.14480   1.00
C1       0.75000    0.64480    0.25000   1.00
C1       0.85520    0.75000    0.25000   1.00
C1       0.64480    0.75000    0.25000   1.00
C1       0.75000    0.85520    0.25000   1.00
C1       0.75000    0.75000    0.35520   1.00
O1       0.75000    0.25000    0.75000   1.00
Zn1      0.78280    0.21720    0.71720   1.00
Zn1      0.71720    0.28280    0.71720   1.00
Zn1      0.71720    0.21720    0.78280   1.00
Zn1      0.78280    0.28280    0.78280   1.00
O2       0.77350    0.22650    0.66180   1.00
O2       0.77350    0.16180    0.72650   1.00
O2       0.83820    0.22650    0.72650   1.00
O2       0.72650    0.27350    0.66180   1.00
O2       0.66180    0.27350    0.72650   1.00
O2       0.72650    0.33820    0.72650   1.00
O2       0.72650    0.16180    0.77350   1.00
O2       0.66180    0.22650    0.77350   1.00
O2       0.72650    0.22650    0.83820   1.00
O2       0.83820    0.27350    0.77350   1.00
O2       0.77350    0.33820    0.77350   1.00
O2       0.77350    0.27350    0.83820   1.00
C1       0.75000    0.25000    0.64480   1.00
C1       0.75000    0.14480    0.75000   1.00
C1       0.85520    0.25000    0.75000   1.00
C1       0.64480    0.25000    0.75000   1.00
C1       0.75000    0.35520    0.75000   1.00
C1       0.75000    0.25000    0.85520   1.00
O1       0.25000    0.75000    0.75000   1.00
Zn1      0.28280    0.71720    0.71720   1.00
Zn1      0.21720    0.78280    0.71720   1.00
Zn1      0.21720    0.71720    0.78280   1.00
Zn1      0.28280    0.78280    0.78280   1.00
O2       0.27350    0.72650    0.66180   1.00
O2       0.27350    0.66180    0.72650   1.00
O2       0.33820    0.72650    0.72650   1.00
O2       0.22650    0.77350    0.66180   1.00
O2       0.16180    0.77350    0.72650   1.00
O2       0.22650    0.83820    0.72650   1.00
O2       0.22650    0.66180    0.77350   1.00
O2       0.16180    0.72650    0.77350   1.00
O2       0.22650    0.72650    0.83820   1.00
O2       0.33820    0.77350    0.77350   1.00
O2       0.27350    0.83820    0.77350   1.00
O2       0.27350    0.77350    0.83820   1.00
C1       0.25000    0.75000    0.64480   1.00
C1       0.25000    0.64480    0.75000   1.00
C1       0.35520    0.75000    0.75000   1.00
C1       0.14480    0.75000    0.75000   1.00
C1       0.25000    0.85520    0.75000   1.00
C1       0.25000    0.75000    0.85520   1.00
C5       0.79855    0.86712    1.13218   1.00
H2       0.77000    0.86825    1.14745   1.00
H2       0.79818    0.89157    1.11090   1.00
C5       0.83172    0.87276    1.16194   1.00
C5       0.83761    0.91631    1.17123   1.00
H2       0.85944    0.86060    1.15015   1.00
O3       0.81909    0.73445    0.98000   1.00
C4       0.74960    0.74986    1.02100   1.00
C3c      0.75660    0.78408    1.04243   1.00
H1       0.76204    0.81119    1.02725   1.00
C3d      0.74203    0.71496    1.04135   1.00
C3       0.75728    0.78385    1.08354   1.00
O2       0.75956    0.81919    1.10248   1.00
C3       0.74342    0.71447    1.08227   1.00
H1       0.73881    0.68674    1.09657   1.00
C2       0.75088    0.74872    1.10439   1.00
C5       0.82825    0.69430    0.97879   1.00
H2       0.83251    0.68357    0.94838   1.00
H2       0.80477    0.67650    0.99266   1.00
C5       0.86617    0.68844    1.00129   1.00
H2       0.86226    0.70017    1.03137   1.00
H2       0.88948    0.70605    0.98698   1.00
C5       0.87762    0.64502    1.00262   1.00
H2       0.88131    0.63305    0.97268   1.00
H2       0.85500    0.62762    1.01811   1.00
C5       0.91657    0.64005    1.02445   1.00
C5       0.69846    0.67479    1.01105   1.00
C5       0.79898    0.82816    1.11070   1.00
H2       0.68855    0.69820    0.99088   1.00
H2       0.67896    0.67452    1.03712   1.00
H2       0.81590    0.83073    1.08300   1.00
H2       0.81347    0.80529    1.12895   1.00
H2       0.82478    0.85819    1.19030   1.00
H2       0.65513    0.65174    0.94247   1.00
H2       0.63120    0.63754    0.98763   1.00
C2       0.75153    0.74780    0.89605   1.00
C3       0.71684    0.75764    0.91597   1.00
O2       0.68148    0.75709    0.89674   1.00
C3       0.78561    0.74067    0.91826   1.00
H1       0.81286    0.73407    0.90385   1.00
C3a      0.71667    0.75912    0.95713   1.00
H1       0.68938    0.76450    0.97202   1.00
C3b      0.78504    0.74095    0.95922   1.00
C4       0.75040    0.75014    0.97900   1.00
O3       0.73791    0.67994    1.02167   1.00
C5       0.66986    0.79542    0.88720   1.00
H2       0.66678    0.81384    0.91391   1.00
C5       0.63047    0.79239    0.86674   1.00
H2       0.69137    0.80949    0.86726   1.00
H2       0.60742    0.78857    0.88932   1.00
H2       0.63076    0.76511    0.84907   1.00
C5       0.62141    0.82794    0.84082   1.00
H2       0.62429    0.85514    0.85824   1.00
C5       0.57961    0.82556    0.82453   1.00
H2       0.64141    0.82931    0.81507   1.00
C5       0.69521    0.63564    0.99017   1.00
H2       0.69856    0.61193    1.01215   1.00
H2       0.72019    0.63301    0.96952   1.00
C5       0.65636    0.63154    0.96800   1.00
C5       0.65205    0.58969    0.95225   1.00
H2       0.81439    0.92627    1.19286   1.00
H2       0.86777    0.92085    1.18447   1.00
H2       0.83502    0.93407    1.14323   1.00
H2       0.92154    0.60784    1.03105   1.00
H2       0.94142    0.65145    1.00551   1.00
H2       0.91558    0.65718    1.05293   1.00
H2       0.57891    0.83842    0.79387   1.00
H2       0.56994    0.79376    0.82344   1.00
H2       0.55904    0.84273    0.84423   1.00
H2       0.68069    0.57330    0.95634   1.00
H2       0.62785    0.57404    0.96884   1.00
H2       0.64441    0.59076    0.91990   1.00
C5       0.86712    1.13218    0.79855   1.00
H2       0.86825    1.14745    0.77000   1.00
H2       0.89157    1.11090    0.79818   1.00
C5       0.87276    1.16194    0.83172   1.00
C5       0.91631    1.17123    0.83761   1.00
H2       0.86060    1.15015    0.85944   1.00
O3       0.73445    0.98000    0.81909   1.00
C4       0.74986    1.02100    0.74960   1.00
C3c      0.78408    1.04243    0.75660   1.00
H1       0.81119    1.02725    0.76204   1.00
C3d      0.71496    1.04135    0.74203   1.00
C3       0.78385    1.08354    0.75728   1.00
O2       0.81919    1.10248    0.75956   1.00
C3       0.71447    1.08227    0.74342   1.00
H1       0.68674    1.09657    0.73881   1.00
C2       0.74872    1.10439    0.75088   1.00
C5       0.69430    0.97879    0.82825   1.00
H2       0.68357    0.94838    0.83251   1.00
H2       0.67650    0.99266    0.80477   1.00
C5       0.68844    1.00129    0.86617   1.00
H2       0.70017    1.03137    0.86226   1.00
H2       0.70605    0.98698    0.88948   1.00
C5       0.64502    1.00262    0.87762   1.00
H2       0.63305    0.97268    0.88131   1.00
H2       0.62762    1.01811    0.85500   1.00
C5       0.64005    1.02445    0.91657   1.00
C5       0.67479    1.01105    0.69846   1.00
C5       0.82816    1.11070    0.79898   1.00
H2       0.69820    0.99088    0.68855   1.00
H2       0.67452    1.03712    0.67896   1.00
H2       0.83073    1.08300    0.81590   1.00
H2       0.80529    1.12895    0.81347   1.00
H2       0.85819    1.19030    0.82478   1.00
H2       0.65174    0.94247    0.65513   1.00
H2       0.63754    0.98763    0.63120   1.00
C2       0.74780    0.89605    0.75153   1.00
C3       0.75764    0.91597    0.71684   1.00
O2       0.75709    0.89674    0.68148   1.00
C3       0.74067    0.91826    0.78561   1.00
H1       0.73407    0.90385    0.81286   1.00
C3a      0.75912    0.95713    0.71667   1.00
H1       0.76450    0.97202    0.68938   1.00
C3b      0.74095    0.95922    0.78504   1.00
C4       0.75014    0.97900    0.75040   1.00
O3       0.67994    1.02167    0.73791   1.00
C5       0.79542    0.88720    0.66986   1.00
H2       0.81384    0.91391    0.66678   1.00
C5       0.79239    0.86674    0.63047   1.00
H2       0.80949    0.86726    0.69137   1.00
H2       0.78857    0.88932    0.60742   1.00
H2       0.76511    0.84907    0.63076   1.00
C5       0.82794    0.84082    0.62141   1.00
H2       0.85514    0.85824    0.62429   1.00
C5       0.82556    0.82453    0.57961   1.00
H2       0.82931    0.81507    0.64141   1.00
C5       0.63564    0.99017    0.69521   1.00
H2       0.61193    1.01215    0.69856   1.00
H2       0.63301    0.96952    0.72019   1.00
C5       0.63154    0.96800    0.65636   1.00
C5       0.58969    0.95225    0.65205   1.00
H2       0.92627    1.19286    0.81439   1.00
H2       0.92085    1.18447    0.86777   1.00
H2       0.93407    1.14323    0.83502   1.00
H2       0.60784    1.03105    0.92154   1.00
H2       0.65145    1.00551    0.94142   1.00
H2       0.65718    1.05293    0.91558   1.00
H2       0.83842    0.79387    0.57891   1.00
H2       0.79376    0.82344    0.56994   1.00
H2       0.84273    0.84423    0.55904   1.00
H2       0.57330    0.95634    0.68069   1.00
H2       0.57404    0.96884    0.62785   1.00
H2       0.59076    0.91990    0.64441   1.00
C5       0.36782    0.79855    0.63288   1.00
H2       0.35255    0.77000    0.63175   1.00
H2       0.38910    0.79818    0.60843   1.00
C5       0.33806    0.83172    0.62724   1.00
C5       0.32877    0.83761    0.58369   1.00
H2       0.34985    0.85944    0.63940   1.00
O3       0.52000    0.81909    0.76555   1.00
C4       0.47900    0.74960    0.75014   1.00
C3c      0.45757    0.75660    0.71592   1.00
H1       0.47275    0.76204    0.68881   1.00
C3d      0.45865    0.74203    0.78504   1.00
C3       0.41646    0.75728    0.71615   1.00
O2       0.39752    0.75956    0.68081   1.00
C3       0.41773    0.74342    0.78553   1.00
H1       0.40343    0.73881    0.81326   1.00
C2       0.39561    0.75088    0.75128   1.00
C5       0.52121    0.82825    0.80570   1.00
H2       0.55162    0.83251    0.81643   1.00
H2       0.50734    0.80477    0.82350   1.00
C5       0.49871    0.86617    0.81156   1.00
H2       0.46863    0.86226    0.79983   1.00
H2       0.51302    0.88948    0.79395   1.00
C5       0.49738    0.87762    0.85498   1.00
H2       0.52732    0.88131    0.86695   1.00
H2       0.48189    0.85500    0.87238   1.00
C5       0.47555    0.91657    0.85995   1.00
C5       0.48895    0.69846    0.82521   1.00
C5       0.38930    0.79898    0.67184   1.00
H2       0.50912    0.68855    0.80180   1.00
H2       0.46288    0.67896    0.82548   1.00
H2       0.41700    0.81590    0.66927   1.00
H2       0.37105    0.81347    0.69471   1.00
H2       0.30970    0.82478    0.64181   1.00
H2       0.55753    0.65513    0.84826   1.00
H2       0.51237    0.63120    0.86246   1.00
C2       0.60395    0.75153    0.75220   1.00
C3       0.58403    0.71684    0.74236   1.00
O2       0.60326    0.68148    0.74291   1.00
C3       0.58174    0.78561    0.75933   1.00
H1       0.59615    0.81286    0.76593   1.00
C3a      0.54287    0.71667    0.74088   1.00
H1       0.52798    0.68938    0.73550   1.00
C3b      0.54078    0.78504    0.75905   1.00
C4       0.52100    0.75040    0.74986   1.00
O3       0.47833    0.73791    0.82006   1.00
C5       0.61280    0.66986    0.70458   1.00
H2       0.58609    0.66678    0.68616   1.00
C5       0.63326    0.63047    0.70761   1.00
H2       0.63274    0.69137    0.69051   1.00
H2       0.61068    0.60742    0.71143   1.00
H2       0.65093    0.63076    0.73489   1.00
C5       0.65918    0.62141    0.67206   1.00
H2       0.64176    0.62429    0.64486   1.00
C5       0.67547    0.57961    0.67444   1.00
H2       0.68493    0.64141    0.67069   1.00
C5       0.50983    0.69521    0.86436   1.00
H2       0.48785    0.69856    0.88807   1.00
H2       0.53048    0.72019    0.86699   1.00
C5       0.53200    0.65636    0.86846   1.00
C5       0.54775    0.65205    0.91031   1.00
H2       0.30714    0.81439    0.57373   1.00
H2       0.31553    0.86777    0.57915   1.00
H2       0.35677    0.83502    0.56593   1.00
H2       0.46895    0.92154    0.89216   1.00
H2       0.49449    0.94142    0.84855   1.00
H2       0.44707    0.91558    0.84282   1.00
H2       0.70613    0.57891    0.66158   1.00
H2       0.67656    0.56994    0.70624   1.00
H2       0.65577    0.55904    0.65727   1.00
H2       0.54366    0.68069    0.92670   1.00
H2       0.53116    0.62785    0.92596   1.00
H2       0.58010    0.64441    0.90924   1.00
C5       1.13218    0.79855    0.86712   1.00
H2       1.14745    0.77000    0.86825   1.00
H2       1.11090    0.79818    0.89157   1.00
C5       1.16194    0.83172    0.87276   1.00
C5       1.17123    0.83761    0.91631   1.00
H2       1.15015    0.85944    0.86060   1.00
O3       0.98000    0.81909    0.73445   1.00
C4       1.02100    0.74960    0.74986   1.00
C3c      1.04243    0.75660    0.78408   1.00
H1       1.02725    0.76204    0.81119   1.00
C3d      1.04135    0.74203    0.71496   1.00
C3       1.08354    0.75728    0.78385   1.00
O2       1.10248    0.75956    0.81919   1.00
C3       1.08227    0.74342    0.71447   1.00
H1       1.09657    0.73881    0.68674   1.00
C2       1.10439    0.75088    0.74872   1.00
C5       0.97879    0.82825    0.69430   1.00
H2       0.94838    0.83251    0.68357   1.00
H2       0.99266    0.80477    0.67650   1.00
C5       1.00129    0.86617    0.68844   1.00
H2       1.03137    0.86226    0.70017   1.00
H2       0.98698    0.88948    0.70605   1.00
C5       1.00262    0.87762    0.64502   1.00
H2       0.97268    0.88131    0.63305   1.00
H2       1.01811    0.85500    0.62762   1.00
C5       1.02445    0.91657    0.64005   1.00
C5       1.01105    0.69846    0.67479   1.00
C5       1.11070    0.79898    0.82816   1.00
H2       0.99088    0.68855    0.69820   1.00
H2       1.03712    0.67896    0.67452   1.00
H2       1.08300    0.81590    0.83073   1.00
H2       1.12895    0.81347    0.80529   1.00
H2       1.19030    0.82478    0.85819   1.00
H2       0.94247    0.65513    0.65174   1.00
H2       0.98763    0.63120    0.63754   1.00
C2       0.89605    0.75153    0.74780   1.00
C3       0.91597    0.71684    0.75764   1.00
O2       0.89674    0.68148    0.75709   1.00
C3       0.91826    0.78561    0.74067   1.00
H1       0.90385    0.81286    0.73407   1.00
C3a      0.95713    0.71667    0.75912   1.00
H1       0.97202    0.68938    0.76450   1.00
C3b      0.95922    0.78504    0.74095   1.00
C4       0.97900    0.75040    0.75014   1.00
O3       1.02167    0.73791    0.67994   1.00
C5       0.88720    0.66986    0.79542   1.00
H2       0.91391    0.66678    0.81384   1.00
C5       0.86674    0.63047    0.79239   1.00
H2       0.86726    0.69137    0.80949   1.00
H2       0.88932    0.60742    0.78857   1.00
H2       0.84907    0.63076    0.76511   1.00
C5       0.84082    0.62141    0.82794   1.00
H2       0.85824    0.62429    0.85514   1.00
C5       0.82453    0.57961    0.82556   1.00
H2       0.81507    0.64141    0.82931   1.00
C5       0.99017    0.69521    0.63564   1.00
H2       1.01215    0.69856    0.61193   1.00
H2       0.96952    0.72019    0.63301   1.00
C5       0.96800    0.65636    0.63154   1.00
C5       0.95225    0.65205    0.58969   1.00
H2       1.19286    0.81439    0.92627   1.00
H2       1.18447    0.86777    0.92085   1.00
H2       1.14323    0.83502    0.93407   1.00
H2       1.03105    0.92154    0.60784   1.00
H2       1.00551    0.94142    0.65145   1.00
H2       1.05293    0.91558    0.65718   1.00
H2       0.79387    0.57891    0.83842   1.00
H2       0.82344    0.56994    0.79376   1.00
H2       0.84423    0.55904    0.84273   1.00
H2       0.95634    0.68069    0.57330   1.00
H2       0.96884    0.62785    0.57404   1.00
H2       0.91990    0.64441    0.59076   1.00
C5       0.63288    0.36782    0.79855   1.00
H2       0.63175    0.35255    0.77000   1.00
H2       0.60843    0.38910    0.79818   1.00
C5       0.62724    0.33806    0.83172   1.00
C5       0.58369    0.32877    0.83761   1.00
H2       0.63940    0.34985    0.85944   1.00
O3       0.76555    0.52000    0.81909   1.00
C4       0.75014    0.47900    0.74960   1.00
C3c      0.71592    0.45757    0.75660   1.00
H1       0.68881    0.47275    0.76204   1.00
C3d      0.78504    0.45865    0.74203   1.00
C3       0.71615    0.41646    0.75728   1.00
O2       0.68081    0.39752    0.75956   1.00
C3       0.78553    0.41773    0.74342   1.00
H1       0.81326    0.40343    0.73881   1.00
C2       0.75128    0.39561    0.75088   1.00
C5       0.80570    0.52121    0.82825   1.00
H2       0.81643    0.55162    0.83251   1.00
H2       0.82350    0.50734    0.80477   1.00
C5       0.81156    0.49871    0.86617   1.00
H2       0.79983    0.46863    0.86226   1.00
H2       0.79395    0.51302    0.88948   1.00
C5       0.85498    0.49738    0.87762   1.00
H2       0.86695    0.52732    0.88131   1.00
H2       0.87238    0.48189    0.85500   1.00
C5       0.85995    0.47555    0.91657   1.00
C5       0.82521    0.48895    0.69846   1.00
C5       0.67184    0.38930    0.79898   1.00
H2       0.80180    0.50912    0.68855   1.00
H2       0.82548    0.46288    0.67896   1.00
H2       0.66927    0.41700    0.81590   1.00
H2       0.69471    0.37105    0.81347   1.00
H2       0.64181    0.30970    0.82478   1.00
H2       0.84826    0.55753    0.65513   1.00
H2       0.86246    0.51237    0.63120   1.00
C2       0.75220    0.60395    0.75153   1.00
C3       0.74236    0.58403    0.71684   1.00
O2       0.74291    0.60326    0.68148   1.00
C3       0.75933    0.58174    0.78561   1.00
H1       0.76593    0.59615    0.81286   1.00
C3a      0.74088    0.54287    0.71667   1.00
H1       0.73550    0.52798    0.68938   1.00
C3b      0.75905    0.54078    0.78504   1.00
C4       0.74986    0.52100    0.75040   1.00
O3       0.82006    0.47833    0.73791   1.00
C5       0.70458    0.61280    0.66986   1.00
H2       0.68616    0.58609    0.66678   1.00
C5       0.70761    0.63326    0.63047   1.00
H2       0.69051    0.63274    0.69137   1.00
H2       0.71143    0.61068    0.60742   1.00
H2       0.73489    0.65093    0.63076   1.00
C5       0.67206    0.65918    0.62141   1.00
H2       0.64486    0.64176    0.62429   1.00
C5       0.67444    0.67547    0.57961   1.00
H2       0.67069    0.68493    0.64141   1.00
C5       0.86436    0.50983    0.69521   1.00
H2       0.88807    0.48785    0.69856   1.00
H2       0.86699    0.53048    0.72019   1.00
C5       0.86846    0.53200    0.65636   1.00
C5       0.91031    0.54775    0.65205   1.00
H2       0.57373    0.30714    0.81439   1.00
H2       0.57915    0.31553    0.86777   1.00
H2       0.56593    0.35677    0.83502   1.00
H2       0.89216    0.46895    0.92154   1.00
H2       0.84855    0.49449    0.94142   1.00
H2       0.84282    0.44707    0.91558   1.00
H2       0.66158    0.70613    0.57891   1.00
H2       0.70624    0.67656    0.56994   1.00
H2       0.65727    0.65577    0.55904   1.00
H2       0.92670    0.54366    0.68069   1.00
H2       0.92596    0.53116    0.62785   1.00
H2       0.90924    0.58010    0.64441   1.00
C5       0.79855    0.63288    0.36782   1.00
H2       0.77000    0.63175    0.35255   1.00
H2       0.79818    0.60843    0.38910   1.00
C5       0.83172    0.62724    0.33806   1.00
C5       0.83761    0.58369    0.32877   1.00
H2       0.85944    0.63940    0.34985   1.00
O3       0.81909    0.76555    0.52000   1.00
C4       0.74960    0.75014    0.47900   1.00
C3c      0.75660    0.71592    0.45757   1.00
H1       0.76204    0.68881    0.47275   1.00
C3d      0.74203    0.78504    0.45865   1.00
C3       0.75728    0.71615    0.41646   1.00
O2       0.75956    0.68081    0.39752   1.00
C3       0.74342    0.78553    0.41773   1.00
H1       0.73881    0.81326    0.40343   1.00
C2       0.75088    0.75128    0.39561   1.00
C5       0.82825    0.80570    0.52121   1.00
H2       0.83251    0.81643    0.55162   1.00
H2       0.80477    0.82350    0.50734   1.00
C5       0.86617    0.81156    0.49871   1.00
H2       0.86226    0.79983    0.46863   1.00
H2       0.88948    0.79395    0.51302   1.00
C5       0.87762    0.85498    0.49738   1.00
H2       0.88131    0.86695    0.52732   1.00
H2       0.85500    0.87238    0.48189   1.00
C5       0.91657    0.85995    0.47555   1.00
C5       0.69846    0.82521    0.48895   1.00
C5       0.79898    0.67184    0.38930   1.00
H2       0.68855    0.80180    0.50912   1.00
H2       0.67896    0.82548    0.46288   1.00
H2       0.81590    0.66927    0.41700   1.00
H2       0.81347    0.69471    0.37105   1.00
H2       0.82478    0.64181    0.30970   1.00
H2       0.65513    0.84826    0.55753   1.00
H2       0.63120    0.86246    0.51237   1.00
C2       0.75153    0.75220    0.60395   1.00
C3       0.71684    0.74236    0.58403   1.00
O2       0.68148    0.74291    0.60326   1.00
C3       0.78561    0.75933    0.58174   1.00
H1       0.81286    0.76593    0.59615   1.00
C3a      0.71667    0.74088    0.54287   1.00
H1       0.68938    0.73550    0.52798   1.00
C3b      0.78504    0.75905    0.54078   1.00
C4       0.75040    0.74986    0.52100   1.00
O3       0.73791    0.82006    0.47833   1.00
C5       0.66986    0.70458    0.61280   1.00
H2       0.66678    0.68616    0.58609   1.00
C5       0.63047    0.70761    0.63326   1.00
H2       0.69137    0.69051    0.63274   1.00
H2       0.60742    0.71143    0.61068   1.00
H2       0.63076    0.73489    0.65093   1.00
C5       0.62141    0.67206    0.65918   1.00
H2       0.62429    0.64486    0.64176   1.00
C5       0.57961    0.67444    0.67547   1.00
H2       0.64141    0.67069    0.68493   1.00
C5       0.69521    0.86436    0.50983   1.00
H2       0.69856    0.88807    0.48785   1.00
H2       0.72019    0.86699    0.53048   1.00
C5       0.65636    0.86846    0.53200   1.00
C5       0.65205    0.91031    0.54775   1.00
H2       0.81439    0.57373    0.30714   1.00
H2       0.86777    0.57915    0.31553   1.00
H2       0.83502    0.56593    0.35677   1.00
H2       0.92154    0.89216    0.46895   1.00
H2       0.94142    0.84855    0.49449   1.00
H2       0.91558    0.84282    0.44707   1.00
H2       0.57891    0.66158    0.70613   1.00
H2       0.56994    0.70624    0.67656   1.00
H2       0.55904    0.65727    0.65577   1.00
H2       0.68069    0.92670    0.54366   1.00
H2       0.62785    0.92596    0.53116   1.00
H2       0.64441    0.90924    0.58010   1.00
C5       0.29855    0.36712    1.13218   1.00
H2       0.27000    0.36825    1.14745   1.00
H2       0.29818    0.39157    1.11090   1.00
C5       0.33172    0.37276    1.16194   1.00
C5       0.33761    0.41631    1.17123   1.00
H2       0.35944    0.36060    1.15015   1.00
O3       0.31909    0.23445    0.98000   1.00
C4       0.24960    0.24986    1.02100   1.00
C3c      0.25660    0.28408    1.04243   1.00
H1       0.26204    0.31119    1.02725   1.00
C3d      0.24203    0.21496    1.04135   1.00
C3       0.25728    0.28385    1.08354   1.00
O2       0.25956    0.31919    1.10248   1.00
C3       0.24342    0.21447    1.08227   1.00
H1       0.23881    0.18674    1.09657   1.00
C2       0.25088    0.24872    1.10439   1.00
C5       0.32825    0.19430    0.97879   1.00
H2       0.33251    0.18357    0.94838   1.00
H2       0.30477    0.17650    0.99266   1.00
C5       0.36617    0.18844    1.00129   1.00
H2       0.36226    0.20017    1.03137   1.00
H2       0.38948    0.20605    0.98698   1.00
C5       0.37762    0.14502    1.00262   1.00
H2       0.38131    0.13305    0.97268   1.00
H2       0.35500    0.12762    1.01811   1.00
C5       0.41657    0.14005    1.02445   1.00
C5       0.19846    0.17479    1.01105   1.00
C5       0.29898    0.32816    1.11070   1.00
H2       0.18855    0.19820    0.99088   1.00
H2       0.17896    0.17452    1.03712   1.00
H2       0.31590    0.33073    1.08300   1.00
H2       0.31347    0.30529    1.12895   1.00
H2       0.32478    0.35819    1.19030   1.00
H2       0.15513    0.15174    0.94247   1.00
H2       0.13120    0.13754    0.98763   1.00
C2       0.25153    0.24780    0.89605   1.00
C3       0.21684    0.25764    0.91597   1.00
O2       0.18148    0.25709    0.89674   1.00
C3       0.28561    0.24067    0.91826   1.00
H1       0.31286    0.23407    0.90385   1.00
C3a      0.21667    0.25912    0.95713   1.00
H1       0.18938    0.26450    0.97202   1.00
C3b      0.28504    0.24095    0.95922   1.00
C4       0.25040    0.25014    0.97900   1.00
O3       0.23791    0.17994    1.02167   1.00
C5       0.16986    0.29542    0.88720   1.00
H2       0.16678    0.31384    0.91391   1.00
C5       0.13047    0.29239    0.86674   1.00
H2       0.19137    0.30949    0.86726   1.00
H2       0.10742    0.28857    0.88932   1.00
H2       0.13076    0.26511    0.84907   1.00
C5       0.12141    0.32794    0.84082   1.00
H2       0.12429    0.35514    0.85824   1.00
C5       0.07961    0.32556    0.82453   1.00
H2       0.14141    0.32931    0.81507   1.00
C5       0.19521    0.13564    0.99017   1.00
H2       0.19856    0.11193    1.01215   1.00
H2       0.22019    0.13301    0.96952   1.00
C5       0.15636    0.13154    0.96800   1.00
C5       0.15205    0.08969    0.95225   1.00
H2       0.31439    0.42627    1.19286   1.00
H2       0.36777    0.42085    1.18447   1.00
H2       0.33502    0.43407    1.14323   1.00
H2       0.42154    0.10784    1.03105   1.00
H2       0.44142    0.15145    1.00551   1.00
H2       0.41558    0.15718    1.05293   1.00
H2       0.07891    0.33842    0.79387   1.00
H2       0.06994    0.29376    0.82344   1.00
H2       0.05904    0.34273    0.84423   1.00
H2       0.18069    0.07330    0.95634   1.00
H2       0.12785    0.07404    0.96884   1.00
H2       0.14441    0.09076    0.91990   1.00
C5       0.36712    0.63218    0.79855   1.00
H2       0.36825    0.64745    0.77000   1.00
H2       0.39157    0.61090    0.79818   1.00
C5       0.37276    0.66194    0.83172   1.00
C5       0.41631    0.67123    0.83761   1.00
H2       0.36060    0.65015    0.85944   1.00
O3       0.23445    0.48000    0.81909   1.00
C4       0.24986    0.52100    0.74960   1.00
C3c      0.28408    0.54243    0.75660   1.00
H1       0.31119    0.52725    0.76204   1.00
C3d      0.21496    0.54135    0.74203   1.00
C3       0.28385    0.58354    0.75728   1.00
O2       0.31919    0.60248    0.75956   1.00
C3       0.21447    0.58227    0.74342   1.00
H1       0.18674    0.59657    0.73881   1.00
C2       0.24872    0.60439    0.75088   1.00
C5       0.19430    0.47879    0.82825   1.00
H2       0.18357    0.44838    0.83251   1.00
H2       0.17650    0.49266    0.80477   1.00
C5       0.18844    0.50129    0.86617   1.00
H2       0.20017    0.53137    0.86226   1.00
H2       0.20605    0.48698    0.88948   1.00
C5       0.14502    0.50262    0.87762   1.00
H2       0.13305    0.47268    0.88131   1.00
H2       0.12762    0.51811    0.85500   1.00
C5       0.14005    0.52445    0.91657   1.00
C5       0.17479    0.51105    0.69846   1.00
C5       0.32816    0.61070    0.79898   1.00
H2       0.19820    0.49088    0.68855   1.00
H2       0.17452    0.53712    0.67896   1.00
H2       0.33073    0.58300    0.81590   1.00
H2       0.30529    0.62895    0.81347   1.00
H2       0.35819    0.69030    0.82478   1.00
H2       0.15174    0.44247    0.65513   1.00
H2       0.13754    0.48763    0.63120   1.00
C2       0.24780    0.39605    0.75153   1.00
C3       0.25764    0.41597    0.71684   1.00
O2       0.25709    0.39674    0.68148   1.00
C3       0.24067    0.41826    0.78561   1.00
H1       0.23407    0.40385    0.81286   1.00
C3a      0.25912    0.45713    0.71667   1.00
H1       0.26450    0.47202    0.68938   1.00
C3b      0.24095    0.45922    0.78504   1.00
C4       0.25014    0.47900    0.75040   1.00
O3       0.17994    0.52167    0.73791   1.00
C5       0.29542    0.38720    0.66986   1.00
H2       0.31384    0.41391    0.66678   1.00
C5       0.29239    0.36674    0.63047   1.00
H2       0.30949    0.36726    0.69137   1.00
H2       0.28857    0.38932    0.60742   1.00
H2       0.26511    0.34907    0.63076   1.00
C5       0.32794    0.34082    0.62141   1.00
H2       0.35514    0.35824    0.62429   1.00
C5       0.32556    0.32453    0.57961   1.00
H2       0.32931    0.31507    0.64141   1.00
C5       0.13564    0.49017    0.69521   1.00
H2       0.11193    0.51215    0.69856   1.00
H2       0.13301    0.46952    0.72019   1.00
C5       0.13154    0.46800    0.65636   1.00
C5       0.08969    0.45225    0.65205   1.00
H2       0.42627    0.69286    0.81439   1.00
H2       0.42085    0.68447    0.86777   1.00
H2       0.43407    0.64323    0.83502   1.00
H2       0.10784    0.53105    0.92154   1.00
H2       0.15145    0.50551    0.94142   1.00
H2       0.15718    0.55293    0.91558   1.00
H2       0.33842    0.29387    0.57891   1.00
H2       0.29376    0.32344    0.56994   1.00
H2       0.34273    0.34423    0.55904   1.00
H2       0.07330    0.45634    0.68069   1.00
H2       0.07404    0.46884    0.62785   1.00
H2       0.09076    0.41990    0.64441   1.00
C5       -0.13218   0.29855    0.63288   1.00
H2       -0.14745   0.27000    0.63175   1.00
H2       -0.11090   0.29818    0.60843   1.00
C5       -0.16194   0.33172    0.62724   1.00
C5       -0.17123   0.33761    0.58369   1.00
H2       -0.15015   0.35944    0.63940   1.00
O3       0.02000    0.31909    0.76555   1.00
C4       -0.02100   0.24960    0.75014   1.00
C3c      -0.04243   0.25660    0.71592   1.00
H1       -0.02725   0.26204    0.68881   1.00
C3d      -0.04135   0.24203    0.78504   1.00
C3       -0.08354   0.25728    0.71615   1.00
O2       -0.10248   0.25956    0.68081   1.00
C3       -0.08227   0.24342    0.78553   1.00
H1       -0.09657   0.23881    0.81326   1.00
C2       -0.10439   0.25088    0.75128   1.00
C5       0.02121    0.32825    0.80570   1.00
H2       0.05162    0.33251    0.81643   1.00
H2       0.00734    0.30477    0.82350   1.00
C5       -0.00129   0.36617    0.81156   1.00
H2       -0.03137   0.36226    0.79983   1.00
H2       0.01302    0.38948    0.79395   1.00
C5       -0.00262   0.37762    0.85498   1.00
H2       0.02732    0.38131    0.86695   1.00
H2       -0.01811   0.35500    0.87238   1.00
C5       -0.02445   0.41657    0.85995   1.00
C5       -0.01105   0.19846    0.82521   1.00
C5       -0.11070   0.29898    0.67184   1.00
H2       0.00912    0.18855    0.80180   1.00
H2       -0.03712   0.17896    0.82548   1.00
H2       -0.08300   0.31590    0.66927   1.00
H2       -0.12895   0.31347    0.69471   1.00
H2       -0.19030   0.32478    0.64181   1.00
H2       0.05753    0.15513    0.84826   1.00
H2       0.01237    0.13120    0.86246   1.00
C2       0.10395    0.25153    0.75220   1.00
C3       0.08403    0.21684    0.74236   1.00
O2       0.10326    0.18148    0.74291   1.00
C3       0.08174    0.28561    0.75933   1.00
H1       0.09615    0.31286    0.76593   1.00
C3a      0.04287    0.21667    0.74088   1.00
H1       0.02798    0.18938    0.73550   1.00
C3b      0.04078    0.28504    0.75905   1.00
C4       0.02100    0.25040    0.74986   1.00
O3       -0.02167   0.23791    0.82006   1.00
C5       0.11280    0.16986    0.70458   1.00
H2       0.08609    0.16678    0.68616   1.00
C5       0.13326    0.13047    0.70761   1.00
H2       0.13274    0.19137    0.69051   1.00
H2       0.11068    0.10742    0.71143   1.00
H2       0.15093    0.13076    0.73489   1.00
C5       0.15918    0.12141    0.67206   1.00
H2       0.14176    0.12429    0.64486   1.00
C5       0.17547    0.07961    0.67444   1.00
H2       0.18493    0.14141    0.67069   1.00
C5       0.00983    0.19521    0.86436   1.00
H2       -0.01215   0.19856    0.88807   1.00
H2       0.03048    0.22019    0.86699   1.00
C5       0.03200    0.15636    0.86846   1.00
C5       0.04775    0.15205    0.91031   1.00
H2       -0.19286   0.31439    0.57373   1.00
H2       -0.18447   0.36777    0.57915   1.00
H2       -0.14323   0.33502    0.56593   1.00
H2       -0.03105   0.42154    0.89216   1.00
H2       -0.00551   0.44142    0.84855   1.00
H2       -0.05293   0.41558    0.84282   1.00
H2       0.20613    0.07891    0.66158   1.00
H2       0.17656    0.06994    0.70624   1.00
H2       0.15577    0.05904    0.65727   1.00
H2       0.04366    0.18069    0.92670   1.00
H2       0.03116    0.12785    0.92596   1.00
H2       0.08010    0.14441    0.90924   1.00
C5       0.63218    0.29855    0.86712   1.00
H2       0.64745    0.27000    0.86825   1.00
H2       0.61090    0.29818    0.89157   1.00
C5       0.66194    0.33172    0.87276   1.00
C5       0.67123    0.33761    0.91631   1.00
H2       0.65015    0.35944    0.86060   1.00
O3       0.48000    0.31909    0.73445   1.00
C4       0.52100    0.24960    0.74986   1.00
C3c      0.54243    0.25660    0.78408   1.00
H1       0.52725    0.26204    0.81119   1.00
C3d      0.54135    0.24203    0.71496   1.00
C3       0.58354    0.25728    0.78385   1.00
O2       0.60248    0.25956    0.81919   1.00
C3       0.58227    0.24342    0.71447   1.00
H1       0.59657    0.23881    0.68674   1.00
C2       0.60439    0.25088    0.74872   1.00
C5       0.47879    0.32825    0.69430   1.00
H2       0.44838    0.33251    0.68357   1.00
H2       0.49266    0.30477    0.67650   1.00
C5       0.50129    0.36617    0.68844   1.00
H2       0.53137    0.36226    0.70017   1.00
H2       0.48698    0.38948    0.70605   1.00
C5       0.50262    0.37762    0.64502   1.00
H2       0.47268    0.38131    0.63305   1.00
H2       0.51811    0.35500    0.62762   1.00
C5       0.52445    0.41657    0.64005   1.00
C5       0.51105    0.19846    0.67479   1.00
C5       0.61070    0.29898    0.82816   1.00
H2       0.49088    0.18855    0.69820   1.00
H2       0.53712    0.17896    0.67452   1.00
H2       0.58300    0.31590    0.83073   1.00
H2       0.62895    0.31347    0.80529   1.00
H2       0.69030    0.32478    0.85819   1.00
H2       0.44247    0.15513    0.65174   1.00
H2       0.48763    0.13120    0.63754   1.00
C2       0.39605    0.25153    0.74780   1.00
C3       0.41597    0.21684    0.75764   1.00
O2       0.39674    0.18148    0.75709   1.00
C3       0.41826    0.28561    0.74067   1.00
H1       0.40385    0.31286    0.73407   1.00
C3a      0.45713    0.21667    0.75912   1.00
H1       0.47202    0.18938    0.76450   1.00
C3b      0.45922    0.28504    0.74095   1.00
C4       0.47900    0.25040    0.75014   1.00
O3       0.52167    0.23791    0.67994   1.00
C5       0.38720    0.16986    0.79542   1.00
H2       0.41391    0.16678    0.81384   1.00
C5       0.36674    0.13047    0.79239   1.00
H2       0.36726    0.19137    0.80949   1.00
H2       0.38932    0.10742    0.78857   1.00
H2       0.34907    0.13076    0.76511   1.00
C5       0.34082    0.12141    0.82794   1.00
H2       0.35824    0.12429    0.85514   1.00
C5       0.32453    0.07961    0.82556   1.00
H2       0.31507    0.14141    0.82931   1.00
C5       0.49017    0.19521    0.63564   1.00
H2       0.51215    0.19856    0.61193   1.00
H2       0.46952    0.22019    0.63301   1.00
C5       0.46800    0.15636    0.63154   1.00
C5       0.45225    0.15205    0.58969   1.00
H2       0.69286    0.31439    0.92627   1.00
H2       0.68447    0.36777    0.92085   1.00
H2       0.64323    0.33502    0.93407   1.00
H2       0.53105    0.42154    0.60784   1.00
H2       0.50551    0.44142    0.65145   1.00
H2       0.55293    0.41558    0.65718   1.00
H2       0.29387    0.07891    0.83842   1.00
H2       0.32344    0.06994    0.79376   1.00
H2       0.34423    0.05904    0.84273   1.00
H2       0.45634    0.18069    0.57330   1.00
H2       0.46884    0.12785    0.57404   1.00
H2       0.41990    0.14441    0.59076   1.00
C5       0.13288    -0.13218   0.79855   1.00
H2       0.13175    -0.14745   0.77000   1.00
H2       0.10843    -0.11090   0.79818   1.00
C5       0.12724    -0.16194   0.83172   1.00
C5       0.08369    -0.17123   0.83761   1.00
H2       0.13940    -0.15015   0.85944   1.00
O3       0.26555    0.02000    0.81909   1.00
C4       0.25014    -0.02100   0.74960   1.00
C3c      0.21592    -0.04243   0.75660   1.00
H1       0.18881    -0.02725   0.76204   1.00
C3d      0.28504    -0.04135   0.74203   1.00
C3       0.21615    -0.08354   0.75728   1.00
O2       0.18081    -0.10248   0.75956   1.00
C3       0.28553    -0.08227   0.74342   1.00
H1       0.31326    -0.09657   0.73881   1.00
C2       0.25128    -0.10439   0.75088   1.00
C5       0.30570    0.02121    0.82825   1.00
H2       0.31643    0.05162    0.83251   1.00
H2       0.32350    0.00734    0.80477   1.00
C5       0.31156    -0.00129   0.86617   1.00
H2       0.29983    -0.03137   0.86226   1.00
H2       0.29395    0.01302    0.88948   1.00
C5       0.35498    -0.00262   0.87762   1.00
H2       0.36695    0.02732    0.88131   1.00
H2       0.37238    -0.01811   0.85500   1.00
C5       0.35995    -0.02445   0.91657   1.00
C5       0.32521    -0.01105   0.69846   1.00
C5       0.17184    -0.11070   0.79898   1.00
H2       0.30180    0.00912    0.68855   1.00
H2       0.32548    -0.03712   0.67896   1.00
H2       0.16927    -0.08300   0.81590   1.00
H2       0.19471    -0.12895   0.81347   1.00
H2       0.14181    -0.19030   0.82478   1.00
H2       0.34826    0.05753    0.65513   1.00
H2       0.36246    0.01237    0.63120   1.00
C2       0.25220    0.10395    0.75153   1.00
C3       0.24236    0.08403    0.71684   1.00
O2       0.24291    0.10326    0.68148   1.00
C3       0.25933    0.08174    0.78561   1.00
H1       0.26593    0.09615    0.81286   1.00
C3a      0.24088    0.04287    0.71667   1.00
H1       0.23550    0.02798    0.68938   1.00
C3b      0.25905    0.04078    0.78504   1.00
C4       0.24986    0.02100    0.75040   1.00
O3       0.32006    -0.02167   0.73791   1.00
C5       0.20458    0.11280    0.66986   1.00
H2       0.18616    0.08609    0.66678   1.00
C5       0.20761    0.13326    0.63047   1.00
H2       0.19051    0.13274    0.69137   1.00
H2       0.21143    0.11068    0.60742   1.00
H2       0.23489    0.15093    0.63076   1.00
C5       0.17206    0.15918    0.62141   1.00
H2       0.14486    0.14176    0.62429   1.00
C5       0.17444    0.17547    0.57961   1.00
H2       0.17069    0.18493    0.64141   1.00
C5       0.36436    0.00983    0.69521   1.00
H2       0.38807    -0.01215   0.69856   1.00
H2       0.36699    0.03048    0.72019   1.00
C5       0.36846    0.03200    0.65636   1.00
C5       0.41031    0.04775    0.65205   1.00
H2       0.07373    -0.19286   0.81439   1.00
H2       0.07915    -0.18447   0.86777   1.00
H2       0.06593    -0.14323   0.83502   1.00
H2       0.39216    -0.03105   0.92154   1.00
H2       0.34855    -0.00551   0.94142   1.00
H2       0.34282    -0.05293   0.91558   1.00
H2       0.16158    0.20613    0.57891   1.00
H2       0.20624    0.17656    0.56994   1.00
H2       0.15727    0.15577    0.55904   1.00
H2       0.42670    0.04366    0.68069   1.00
H2       0.42596    0.03116    0.62785   1.00
H2       0.40924    0.08010    0.64441   1.00
C5       0.29855    0.13288    0.36782   1.00
H2       0.27000    0.13175    0.35255   1.00
H2       0.29818    0.10843    0.38910   1.00
C5       0.33172    0.12724    0.33806   1.00
C5       0.33761    0.08369    0.32877   1.00
H2       0.35944    0.13940    0.34985   1.00
O3       0.31909    0.26555    0.52000   1.00
C4       0.24960    0.25014    0.47900   1.00
C3c      0.25660    0.21592    0.45757   1.00
H1       0.26204    0.18881    0.47275   1.00
C3d      0.24203    0.28504    0.45865   1.00
C3       0.25728    0.21615    0.41646   1.00
O2       0.25956    0.18081    0.39752   1.00
C3       0.24342    0.28553    0.41773   1.00
H1       0.23881    0.31326    0.40343   1.00
C2       0.25088    0.25128    0.39561   1.00
C5       0.32825    0.30570    0.52121   1.00
H2       0.33251    0.31643    0.55162   1.00
H2       0.30477    0.32350    0.50734   1.00
C5       0.36617    0.31156    0.49871   1.00
H2       0.36226    0.29983    0.46863   1.00
H2       0.38948    0.29395    0.51302   1.00
C5       0.37762    0.35498    0.49738   1.00
H2       0.38131    0.36695    0.52732   1.00
H2       0.35500    0.37238    0.48189   1.00
C5       0.41657    0.35995    0.47555   1.00
C5       0.19846    0.32521    0.48895   1.00
C5       0.29898    0.17184    0.38930   1.00
H2       0.18855    0.30180    0.50912   1.00
H2       0.17896    0.32548    0.46288   1.00
H2       0.31590    0.16927    0.41700   1.00
H2       0.31347    0.19471    0.37105   1.00
H2       0.32478    0.14181    0.30970   1.00
H2       0.15513    0.34826    0.55753   1.00
H2       0.13120    0.36246    0.51237   1.00
C2       0.25153    0.25220    0.60395   1.00
C3       0.21684    0.24236    0.58403   1.00
O2       0.18148    0.24291    0.60326   1.00
C3       0.28561    0.25933    0.58174   1.00
H1       0.31286    0.26593    0.59615   1.00
C3a      0.21667    0.24088    0.54287   1.00
H1       0.18938    0.23550    0.52798   1.00
C3b      0.28504    0.25905    0.54078   1.00
C4       0.25040    0.24986    0.52100   1.00
O3       0.23791    0.32006    0.47833   1.00
C5       0.16986    0.20458    0.61280   1.00
H2       0.16678    0.18616    0.58609   1.00
C5       0.13047    0.20761    0.63326   1.00
H2       0.19137    0.19051    0.63274   1.00
H2       0.10742    0.21143    0.61068   1.00
H2       0.13076    0.23489    0.65093   1.00
C5       0.12141    0.17206    0.65918   1.00
H2       0.12429    0.14486    0.64176   1.00
C5       0.07961    0.17444    0.67547   1.00
H2       0.14141    0.17069    0.68493   1.00
C5       0.19521    0.36436    0.50983   1.00
H2       0.19856    0.38807    0.48785   1.00
H2       0.22019    0.36699    0.53048   1.00
C5       0.15636    0.36846    0.53200   1.00
C5       0.15205    0.41031    0.54775   1.00
H2       0.31439    0.07373    0.30714   1.00
H2       0.36777    0.07915    0.31553   1.00
H2       0.33502    0.06593    0.35677   1.00
H2       0.42154    0.39216    0.46895   1.00
H2       0.44142    0.34855    0.49449   1.00
H2       0.41558    0.34282    0.44707   1.00
H2       0.07891    0.16158    0.70613   1.00
H2       0.06994    0.20624    0.67656   1.00
H2       0.05904    0.15727    0.65577   1.00
H2       0.18069    0.42670    0.54366   1.00
H2       0.12785    0.42596    0.53116   1.00
H2       0.14441    0.40924    0.58010   1.00
C5       0.29855    0.86712    0.63218   1.00
H2       0.27000    0.86825    0.64745   1.00
H2       0.29818    0.89157    0.61090   1.00
C5       0.33172    0.87276    0.66194   1.00
C5       0.33761    0.91631    0.67123   1.00
H2       0.35944    0.86060    0.65015   1.00
O3       0.31909    0.73445    0.48000   1.00
C4       0.24960    0.74986    0.52100   1.00
C3c      0.25660    0.78408    0.54243   1.00
H1       0.26204    0.81119    0.52725   1.00
C3d      0.24203    0.71496    0.54135   1.00
C3       0.25728    0.78385    0.58354   1.00
O2       0.25956    0.81919    0.60248   1.00
C3       0.24342    0.71447    0.58227   1.00
H1       0.23881    0.68674    0.59657   1.00
C2       0.25088    0.74872    0.60439   1.00
C5       0.32825    0.69430    0.47879   1.00
H2       0.33251    0.68357    0.44838   1.00
H2       0.30477    0.67650    0.49266   1.00
C5       0.36617    0.68844    0.50129   1.00
H2       0.36226    0.70017    0.53137   1.00
H2       0.38948    0.70605    0.48698   1.00
C5       0.37762    0.64502    0.50262   1.00
H2       0.38131    0.63305    0.47268   1.00
H2       0.35500    0.62762    0.51811   1.00
C5       0.41657    0.64005    0.52445   1.00
C5       0.19846    0.67479    0.51105   1.00
C5       0.29898    0.82816    0.61070   1.00
H2       0.18855    0.69820    0.49088   1.00
H2       0.17896    0.67452    0.53712   1.00
H2       0.31590    0.83073    0.58300   1.00
H2       0.31347    0.80529    0.62895   1.00
H2       0.32478    0.85819    0.69030   1.00
H2       0.15513    0.65174    0.44247   1.00
H2       0.13120    0.63754    0.48763   1.00
C2       0.25153    0.74780    0.39605   1.00
C3       0.21684    0.75764    0.41597   1.00
O2       0.18148    0.75709    0.39674   1.00
C3       0.28561    0.74067    0.41826   1.00
H1       0.31286    0.73407    0.40385   1.00
C3a      0.21667    0.75912    0.45713   1.00
H1       0.18938    0.76450    0.47202   1.00
C3b      0.28504    0.74095    0.45922   1.00
C4       0.25040    0.75014    0.47900   1.00
O3       0.23791    0.67994    0.52167   1.00
C5       0.16986    0.79542    0.38720   1.00
H2       0.16678    0.81384    0.41391   1.00
C5       0.13047    0.79239    0.36674   1.00
H2       0.19137    0.80949    0.36726   1.00
H2       0.10742    0.78857    0.38932   1.00
H2       0.13076    0.76511    0.34907   1.00
C5       0.12141    0.82794    0.34082   1.00
H2       0.12429    0.85514    0.35824   1.00
C5       0.07961    0.82556    0.32453   1.00
H2       0.14141    0.82931    0.31507   1.00
C5       0.19521    0.63564    0.49017   1.00
H2       0.19856    0.61193    0.51215   1.00
H2       0.22019    0.63301    0.46952   1.00
C5       0.15636    0.63154    0.46800   1.00
C5       0.15205    0.58969    0.45225   1.00
H2       0.31439    0.92627    0.69286   1.00
H2       0.36777    0.92085    0.68447   1.00
H2       0.33502    0.93407    0.64323   1.00
H2       0.42154    0.60784    0.53105   1.00
H2       0.44142    0.65145    0.50551   1.00
H2       0.41558    0.65718    0.55293   1.00
H2       0.07891    0.83842    0.29387   1.00
H2       0.06994    0.79376    0.32344   1.00
H2       0.05904    0.84273    0.34423   1.00
H2       0.18069    0.57330    0.45634   1.00
H2       0.12785    0.57404    0.46884   1.00
H2       0.14441    0.59076    0.41990   1.00
C5       0.36712    1.13218    0.29855   1.00
H2       0.36825    1.14745    0.27000   1.00
H2       0.39157    1.11090    0.29818   1.00
C5       0.37276    1.16194    0.33172   1.00
C5       0.41631    1.17123    0.33761   1.00
H2       0.36060    1.15015    0.35944   1.00
O3       0.23445    0.98000    0.31909   1.00
C4       0.24986    1.02100    0.24960   1.00
C3c      0.28408    1.04243    0.25660   1.00
H1       0.31119    1.02725    0.26204   1.00
C3d      0.21496    1.04135    0.24203   1.00
C3       0.28385    1.08354    0.25728   1.00
O2       0.31919    1.10248    0.25956   1.00
C3       0.21447    1.08227    0.24342   1.00
H1       0.18674    1.09657    0.23881   1.00
C2       0.24872    1.10439    0.25088   1.00
C5       0.19430    0.97879    0.32825   1.00
H2       0.18357    0.94838    0.33251   1.00
H2       0.17650    0.99266    0.30477   1.00
C5       0.18844    1.00129    0.36617   1.00
H2       0.20017    1.03137    0.36226   1.00
H2       0.20605    0.98698    0.38948   1.00
C5       0.14502    1.00262    0.37762   1.00
H2       0.13305    0.97268    0.38131   1.00
H2       0.12762    1.01811    0.35500   1.00
C5       0.14005    1.02445    0.41657   1.00
C5       0.17479    1.01105    0.19846   1.00
C5       0.32816    1.11070    0.29898   1.00
H2       0.19820    0.99088    0.18855   1.00
H2       0.17452    1.03712    0.17896   1.00
H2       0.33073    1.08300    0.31590   1.00
H2       0.30529    1.12895    0.31347   1.00
H2       0.35819    1.19030    0.32478   1.00
H2       0.15174    0.94247    0.15513   1.00
H2       0.13754    0.98763    0.13120   1.00
C2       0.24780    0.89605    0.25153   1.00
C3       0.25764    0.91597    0.21684   1.00
O2       0.25709    0.89674    0.18148   1.00
C3       0.24067    0.91826    0.28561   1.00
H1       0.23407    0.90385    0.31286   1.00
C3a      0.25912    0.95713    0.21667   1.00
H1       0.26450    0.97202    0.18938   1.00
C3b      0.24095    0.95922    0.28504   1.00
C4       0.25014    0.97900    0.25040   1.00
O3       0.17994    1.02167    0.23791   1.00
C5       0.29542    0.88720    0.16986   1.00
H2       0.31384    0.91391    0.16678   1.00
C5       0.29239    0.86674    0.13047   1.00
H2       0.30949    0.86726    0.19137   1.00
H2       0.28857    0.88932    0.10742   1.00
H2       0.26511    0.84907    0.13076   1.00
C5       0.32794    0.84082    0.12141   1.00
H2       0.35514    0.85824    0.12429   1.00
C5       0.32556    0.82453    0.07961   1.00
H2       0.32931    0.81507    0.14141   1.00
C5       0.13564    0.99017    0.19521   1.00
H2       0.11193    1.01215    0.19856   1.00
H2       0.13301    0.96952    0.22019   1.00
C5       0.13154    0.96800    0.15636   1.00
C5       0.08969    0.95225    0.15205   1.00
H2       0.42627    1.19286    0.31439   1.00
H2       0.42085    1.18447    0.36777   1.00
H2       0.43407    1.14323    0.33502   1.00
H2       0.10784    1.03105    0.42154   1.00
H2       0.15145    1.00551    0.44142   1.00
H2       0.15718    1.05293    0.41558   1.00
H2       0.33842    0.79387    0.07891   1.00
H2       0.29376    0.82344    0.06994   1.00
H2       0.34273    0.84423    0.05904   1.00
H2       0.07330    0.95634    0.18069   1.00
H2       0.07404    0.96884    0.12785   1.00
H2       0.09076    0.91990    0.14441   1.00
C5       -0.13218   0.79855    0.13288   1.00
H2       -0.14745   0.77000    0.13175   1.00
H2       -0.11090   0.79818    0.10843   1.00
C5       -0.16194   0.83172    0.12724   1.00
C5       -0.17123   0.83761    0.08369   1.00
H2       -0.15015   0.85944    0.13940   1.00
O3       0.02000    0.81909    0.26555   1.00
C4       -0.02100   0.74960    0.25014   1.00
C3c      -0.04243   0.75660    0.21592   1.00
H1       -0.02725   0.76204    0.18881   1.00
C3d      -0.04135   0.74203    0.28504   1.00
C3       -0.08354   0.75728    0.21615   1.00
O2       -0.10248   0.75956    0.18081   1.00
C3       -0.08227   0.74342    0.28553   1.00
H1       -0.09657   0.73881    0.31326   1.00
C2       -0.10439   0.75088    0.25128   1.00
C5       0.02121    0.82825    0.30570   1.00
H2       0.05162    0.83251    0.31643   1.00
H2       0.00734    0.80477    0.32350   1.00
C5       -0.00129   0.86617    0.31156   1.00
H2       -0.03137   0.86226    0.29983   1.00
H2       0.01302    0.88948    0.29395   1.00
C5       -0.00262   0.87762    0.35498   1.00
H2       0.02732    0.88131    0.36695   1.00
H2       -0.01811   0.85500    0.37238   1.00
C5       -0.02445   0.91657    0.35995   1.00
C5       -0.01105   0.69846    0.32521   1.00
C5       -0.11070   0.79898    0.17184   1.00
H2       0.00912    0.68855    0.30180   1.00
H2       -0.03712   0.67896    0.32548   1.00
H2       -0.08300   0.81590    0.16927   1.00
H2       -0.12895   0.81347    0.19471   1.00
H2       -0.19030   0.82478    0.14181   1.00
H2       0.05753    0.65513    0.34826   1.00
H2       0.01237    0.63120    0.36246   1.00
C2       0.10395    0.75153    0.25220   1.00
C3       0.08403    0.71684    0.24236   1.00
O2       0.10326    0.68148    0.24291   1.00
C3       0.08174    0.78561    0.25933   1.00
H1       0.09615    0.81286    0.26593   1.00
C3a      0.04287    0.71667    0.24088   1.00
H1       0.02798    0.68938    0.23550   1.00
C3b      0.04078    0.78504    0.25905   1.00
C4       0.02100    0.75040    0.24986   1.00
O3       -0.02167   0.73791    0.32006   1.00
C5       0.11280    0.66986    0.20458   1.00
H2       0.08609    0.66678    0.18616   1.00
C5       0.13326    0.63047    0.20761   1.00
H2       0.13274    0.69137    0.19051   1.00
H2       0.11068    0.60742    0.21143   1.00
H2       0.15093    0.63076    0.23489   1.00
C5       0.15918    0.62141    0.17206   1.00
H2       0.14176    0.62429    0.14486   1.00
C5       0.17547    0.57961    0.17444   1.00
H2       0.18493    0.64141    0.17069   1.00
C5       0.00983    0.69521    0.36436   1.00
H2       -0.01215   0.69856    0.38807   1.00
H2       0.03048    0.72019    0.36699   1.00
C5       0.03200    0.65636    0.36846   1.00
C5       0.04775    0.65205    0.41031   1.00
H2       -0.19286   0.81439    0.07373   1.00
H2       -0.18447   0.86777    0.07915   1.00
H2       -0.14323   0.83502    0.06593   1.00
H2       -0.03105   0.92154    0.39216   1.00
H2       -0.00551   0.94142    0.34855   1.00
H2       -0.05293   0.91558    0.34282   1.00
H2       0.20613    0.57891    0.16158   1.00
H2       0.17656    0.56994    0.20624   1.00
H2       0.15577    0.55904    0.15727   1.00
H2       0.04366    0.68069    0.42670   1.00
H2       0.03116    0.62785    0.42596   1.00
H2       0.08010    0.64441    0.40924   1.00
C5       0.63218    0.79855    0.36712   1.00
H2       0.64745    0.77000    0.36825   1.00
H2       0.61090    0.79818    0.39157   1.00
C5       0.66194    0.83172    0.37276   1.00
C5       0.67123    0.83761    0.41631   1.00
H2       0.65015    0.85944    0.36060   1.00
O3       0.48000    0.81909    0.23445   1.00
C4       0.52100    0.74960    0.24986   1.00
C3c      0.54243    0.75660    0.28408   1.00
H1       0.52725    0.76204    0.31119   1.00
C3d      0.54135    0.74203    0.21496   1.00
C3       0.58354    0.75728    0.28385   1.00
O2       0.60248    0.75956    0.31919   1.00
C3       0.58227    0.74342    0.21447   1.00
H1       0.59657    0.73881    0.18674   1.00
C2       0.60439    0.75088    0.24872   1.00
C5       0.47879    0.82825    0.19430   1.00
H2       0.44838    0.83251    0.18357   1.00
H2       0.49266    0.80477    0.17650   1.00
C5       0.50129    0.86617    0.18844   1.00
H2       0.53137    0.86226    0.20017   1.00
H2       0.48698    0.88948    0.20605   1.00
C5       0.50262    0.87762    0.14502   1.00
H2       0.47268    0.88131    0.13305   1.00
H2       0.51811    0.85500    0.12762   1.00
C5       0.52445    0.91657    0.14005   1.00
C5       0.51105    0.69846    0.17479   1.00
C5       0.61070    0.79898    0.32816   1.00
H2       0.49088    0.68855    0.19820   1.00
H2       0.53712    0.67896    0.17452   1.00
H2       0.58300    0.81590    0.33073   1.00
H2       0.62895    0.81347    0.30529   1.00
H2       0.69030    0.82478    0.35819   1.00
H2       0.44247    0.65513    0.15174   1.00
H2       0.48763    0.63120    0.13754   1.00
C2       0.39605    0.75153    0.24780   1.00
C3       0.41597    0.71684    0.25764   1.00
O2       0.39674    0.68148    0.25709   1.00
C3       0.41826    0.78561    0.24067   1.00
H1       0.40385    0.81286    0.23407   1.00
C3a      0.45713    0.71667    0.25912   1.00
H1       0.47202    0.68938    0.26450   1.00
C3b      0.45922    0.78504    0.24095   1.00
C4       0.47900    0.75040    0.25014   1.00
O3       0.52167    0.73791    0.17994   1.00
C5       0.38720    0.66986    0.29542   1.00
H2       0.41391    0.66678    0.31384   1.00
C5       0.36674    0.63047    0.29239   1.00
H2       0.36726    0.69137    0.30949   1.00
H2       0.38932    0.60742    0.28857   1.00
H2       0.34907    0.63076    0.26511   1.00
C5       0.34082    0.62141    0.32794   1.00
H2       0.35824    0.62429    0.35514   1.00
C5       0.32453    0.57961    0.32556   1.00
H2       0.31507    0.64141    0.32931   1.00
C5       0.49017    0.69521    0.13564   1.00
H2       0.51215    0.69856    0.11193   1.00
H2       0.46952    0.72019    0.13301   1.00
C5       0.46800    0.65636    0.13154   1.00
C5       0.45225    0.65205    0.08969   1.00
H2       0.69286    0.81439    0.42627   1.00
H2       0.68447    0.86777    0.42085   1.00
H2       0.64323    0.83502    0.43407   1.00
H2       0.53105    0.92154    0.10784   1.00
H2       0.50551    0.94142    0.15145   1.00
H2       0.55293    0.91558    0.15718   1.00
H2       0.29387    0.57891    0.33842   1.00
H2       0.32344    0.56994    0.29376   1.00
H2       0.34423    0.55904    0.34273   1.00
H2       0.45634    0.68069    0.07330   1.00
H2       0.46884    0.62785    0.07404   1.00
H2       0.41990    0.64441    0.09076   1.00
C5       0.13288    0.36782    0.29855   1.00
H2       0.13175    0.35255    0.27000   1.00
H2       0.10843    0.38910    0.29818   1.00
C5       0.12724    0.33806    0.33172   1.00
C5       0.08369    0.32877    0.33761   1.00
H2       0.13940    0.34985    0.35944   1.00
O3       0.26555    0.52000    0.31909   1.00
C4       0.25014    0.47900    0.24960   1.00
C3c      0.21592    0.45757    0.25660   1.00
H1       0.18881    0.47275    0.26204   1.00
C3d      0.28504    0.45865    0.24203   1.00
C3       0.21615    0.41646    0.25728   1.00
O2       0.18081    0.39752    0.25956   1.00
C3       0.28553    0.41773    0.24342   1.00
H1       0.31326    0.40343    0.23881   1.00
C2       0.25128    0.39561    0.25088   1.00
C5       0.30570    0.52121    0.32825   1.00
H2       0.31643    0.55162    0.33251   1.00
H2       0.32350    0.50734    0.30477   1.00
C5       0.31156    0.49871    0.36617   1.00
H2       0.29983    0.46863    0.36226   1.00
H2       0.29395    0.51302    0.38948   1.00
C5       0.35498    0.49738    0.37762   1.00
H2       0.36695    0.52732    0.38131   1.00
H2       0.37238    0.48189    0.35500   1.00
C5       0.35995    0.47555    0.41657   1.00
C5       0.32521    0.48895    0.19846   1.00
C5       0.17184    0.38930    0.29898   1.00
H2       0.30180    0.50912    0.18855   1.00
H2       0.32548    0.46288    0.17896   1.00
H2       0.16927    0.41700    0.31590   1.00
H2       0.19471    0.37105    0.31347   1.00
H2       0.14181    0.30970    0.32478   1.00
H2       0.34826    0.55753    0.15513   1.00
H2       0.36246    0.51237    0.13120   1.00
C2       0.25220    0.60395    0.25153   1.00
C3       0.24236    0.58403    0.21684   1.00
O2       0.24291    0.60326    0.18148   1.00
C3       0.25933    0.58174    0.28561   1.00
H1       0.26593    0.59615    0.31286   1.00
C3a      0.24088    0.54287    0.21667   1.00
H1       0.23550    0.52798    0.18938   1.00
C3b      0.25905    0.54078    0.28504   1.00
C4       0.24986    0.52100    0.25040   1.00
O3       0.32006    0.47833    0.23791   1.00
C5       0.20458    0.61280    0.16986   1.00
H2       0.18616    0.58609    0.16678   1.00
C5       0.20761    0.63326    0.13047   1.00
H2       0.19051    0.63274    0.19137   1.00
H2       0.21143    0.61068    0.10742   1.00
H2       0.23489    0.65093    0.13076   1.00
C5       0.17206    0.65918    0.12141   1.00
H2       0.14486    0.64176    0.12429   1.00
C5       0.17444    0.67547    0.07961   1.00
H2       0.17069    0.68493    0.14141   1.00
C5       0.36436    0.50983    0.19521   1.00
H2       0.38807    0.48785    0.19856   1.00
H2       0.36699    0.53048    0.22019   1.00
C5       0.36846    0.53200    0.15636   1.00
C5       0.41031    0.54775    0.15205   1.00
H2       0.07373    0.30714    0.31439   1.00
H2       0.07915    0.31553    0.36777   1.00
H2       0.06593    0.35677    0.33502   1.00
H2       0.39216    0.46895    0.42154   1.00
H2       0.34855    0.49449    0.44142   1.00
H2       0.34282    0.44707    0.41558   1.00
H2       0.16158    0.70613    0.07891   1.00
H2       0.20624    0.67656    0.06994   1.00
H2       0.15727    0.65577    0.05904   1.00
H2       0.42670    0.54366    0.18069   1.00
H2       0.42596    0.53116    0.12785   1.00
H2       0.40924    0.58010    0.14441   1.00
C5       0.29855    0.63288    -0.13218   1.00
H2       0.27000    0.63175    -0.14745   1.00
H2       0.29818    0.60843    -0.11090   1.00
C5       0.33172    0.62724    -0.16194   1.00
C5       0.33761    0.58369    -0.17123   1.00
H2       0.35944    0.63940    -0.15015   1.00
O3       0.31909    0.76555    0.02000   1.00
C4       0.24960    0.75014    -0.02100   1.00
C3c      0.25660    0.71592    -0.04243   1.00
H1       0.26204    0.68881    -0.02725   1.00
C3d      0.24203    0.78504    -0.04135   1.00
C3       0.25728    0.71615    -0.08354   1.00
O2       0.25956    0.68081    -0.10248   1.00
C3       0.24342    0.78553    -0.08227   1.00
H1       0.23881    0.81326    -0.09657   1.00
C2       0.25088    0.75128    -0.10439   1.00
C5       0.32825    0.80570    0.02121   1.00
H2       0.33251    0.81643    0.05162   1.00
H2       0.30477    0.82350    0.00734   1.00
C5       0.36617    0.81156    -0.00129   1.00
H2       0.36226    0.79983    -0.03137   1.00
H2       0.38948    0.79395    0.01302   1.00
C5       0.37762    0.85498    -0.00262   1.00
H2       0.38131    0.86695    0.02732   1.00
H2       0.35500    0.87238    -0.01811   1.00
C5       0.41657    0.85995    -0.02445   1.00
C5       0.19846    0.82521    -0.01105   1.00
C5       0.29898    0.67184    -0.11070   1.00
H2       0.18855    0.80180    0.00912   1.00
H2       0.17896    0.82548    -0.03712   1.00
H2       0.31590    0.66927    -0.08300   1.00
H2       0.31347    0.69471    -0.12895   1.00
H2       0.32478    0.64181    -0.19030   1.00
H2       0.15513    0.84826    0.05753   1.00
H2       0.13120    0.86246    0.01237   1.00
C2       0.25153    0.75220    0.10395   1.00
C3       0.21684    0.74236    0.08403   1.00
O2       0.18148    0.74291    0.10326   1.00
C3       0.28561    0.75933    0.08174   1.00
H1       0.31286    0.76593    0.09615   1.00
C3a      0.21667    0.74088    0.04287   1.00
H1       0.18938    0.73550    0.02798   1.00
C3b      0.28504    0.75905    0.04078   1.00
C4       0.25040    0.74986    0.02100   1.00
O3       0.23791    0.82006    -0.02167   1.00
C5       0.16986    0.70458    0.11280   1.00
H2       0.16678    0.68616    0.08609   1.00
C5       0.13047    0.70761    0.13326   1.00
H2       0.19137    0.69051    0.13274   1.00
H2       0.10742    0.71143    0.11068   1.00
H2       0.13076    0.73489    0.15093   1.00
C5       0.12141    0.67206    0.15918   1.00
H2       0.12429    0.64486    0.14176   1.00
C5       0.07961    0.67444    0.17547   1.00
H2       0.14141    0.67069    0.18493   1.00
C5       0.19521    0.86436    0.00983   1.00
H2       0.19856    0.88807    -0.01215   1.00
H2       0.22019    0.86699    0.03048   1.00
C5       0.15636    0.86846    0.03200   1.00
C5       0.15205    0.91031    0.04775   1.00
H2       0.31439    0.57373    -0.19286   1.00
H2       0.36777    0.57915    -0.18447   1.00
H2       0.33502    0.56593    -0.14323   1.00
H2       0.42154    0.89216    -0.03105   1.00
H2       0.44142    0.84855    -0.00551   1.00
H2       0.41558    0.84282    -0.05293   1.00
H2       0.07891    0.66158    0.20613   1.00
H2       0.06994    0.70624    0.17656   1.00
H2       0.05904    0.65727    0.15577   1.00
H2       0.18069    0.92670    0.04366   1.00
H2       0.12785    0.92596    0.03116   1.00
H2       0.14441    0.90924    0.08010   1.00
C5       0.79855    0.36712    0.63218   1.00
H2       0.77000    0.36825    0.64745   1.00
H2       0.79818    0.39157    0.61090   1.00
C5       0.83172    0.37276    0.66194   1.00
C5       0.83761    0.41631    0.67123   1.00
H2       0.85944    0.36060    0.65015   1.00
O3       0.81909    0.23445    0.48000   1.00
C4       0.74960    0.24986    0.52100   1.00
C3c      0.75660    0.28408    0.54243   1.00
H1       0.76204    0.31119    0.52725   1.00
C3d      0.74203    0.21496    0.54135   1.00
C3       0.75728    0.28385    0.58354   1.00
O2       0.75956    0.31919    0.60248   1.00
C3       0.74342    0.21447    0.58227   1.00
H1       0.73881    0.18674    0.59657   1.00
C2       0.75088    0.24872    0.60439   1.00
C5       0.82825    0.19430    0.47879   1.00
H2       0.83251    0.18357    0.44838   1.00
H2       0.80477    0.17650    0.49266   1.00
C5       0.86617    0.18844    0.50129   1.00
H2       0.86226    0.20017    0.53137   1.00
H2       0.88948    0.20605    0.48698   1.00
C5       0.87762    0.14502    0.50262   1.00
H2       0.88131    0.13305    0.47268   1.00
H2       0.85500    0.12762    0.51811   1.00
C5       0.91657    0.14005    0.52445   1.00
C5       0.69846    0.17479    0.51105   1.00
C5       0.79898    0.32816    0.61070   1.00
H2       0.68855    0.19820    0.49088   1.00
H2       0.67896    0.17452    0.53712   1.00
H2       0.81590    0.33073    0.58300   1.00
H2       0.81347    0.30529    0.62895   1.00
H2       0.82478    0.35819    0.69030   1.00
H2       0.65513    0.15174    0.44247   1.00
H2       0.63120    0.13754    0.48763   1.00
C2       0.75153    0.24780    0.39605   1.00
C3       0.71684    0.25764    0.41597   1.00
O2       0.68148    0.25709    0.39674   1.00
C3       0.78561    0.24067    0.41826   1.00
H1       0.81286    0.23407    0.40385   1.00
C3a      0.71667    0.25912    0.45713   1.00
H1       0.68938    0.26450    0.47202   1.00
C3b      0.78504    0.24095    0.45922   1.00
C4       0.75040    0.25014    0.47900   1.00
O3       0.73791    0.17994    0.52167   1.00
C5       0.66986    0.29542    0.38720   1.00
H2       0.66678    0.31384    0.41391   1.00
C5       0.63047    0.29239    0.36674   1.00
H2       0.69137    0.30949    0.36726   1.00
H2       0.60742    0.28857    0.38932   1.00
H2       0.63076    0.26511    0.34907   1.00
C5       0.62141    0.32794    0.34082   1.00
H2       0.62429    0.35514    0.35824   1.00
C5       0.57961    0.32556    0.32453   1.00
H2       0.64141    0.32931    0.31507   1.00
C5       0.69521    0.13564    0.49017   1.00
H2       0.69856    0.11193    0.51215   1.00
H2       0.72019    0.13301    0.46952   1.00
C5       0.65636    0.13154    0.46800   1.00
C5       0.65205    0.08969    0.45225   1.00
H2       0.81439    0.42627    0.69286   1.00
H2       0.86777    0.42085    0.68447   1.00
H2       0.83502    0.43407    0.64323   1.00
H2       0.92154    0.10784    0.53105   1.00
H2       0.94142    0.15145    0.50551   1.00
H2       0.91558    0.15718    0.55293   1.00
H2       0.57891    0.33842    0.29387   1.00
H2       0.56994    0.29376    0.32344   1.00
H2       0.55904    0.34273    0.34423   1.00
H2       0.68069    0.07330    0.45634   1.00
H2       0.62785    0.07404    0.46884   1.00
H2       0.64441    0.09076    0.41990   1.00
C5       0.86712    0.63218    0.29855   1.00
H2       0.86825    0.64745    0.27000   1.00
H2       0.89157    0.61090    0.29818   1.00
C5       0.87276    0.66194    0.33172   1.00
C5       0.91631    0.67123    0.33761   1.00
H2       0.86060    0.65015    0.35944   1.00
O3       0.73445    0.48000    0.31909   1.00
C4       0.74986    0.52100    0.24960   1.00
C3c      0.78408    0.54243    0.25660   1.00
H1       0.81119    0.52725    0.26204   1.00
C3d      0.71496    0.54135    0.24203   1.00
C3       0.78385    0.58354    0.25728   1.00
O2       0.81919    0.60248    0.25956   1.00
C3       0.71447    0.58227    0.24342   1.00
H1       0.68674    0.59657    0.23881   1.00
C2       0.74872    0.60439    0.25088   1.00
C5       0.69430    0.47879    0.32825   1.00
H2       0.68357    0.44838    0.33251   1.00
H2       0.67650    0.49266    0.30477   1.00
C5       0.68844    0.50129    0.36617   1.00
H2       0.70017    0.53137    0.36226   1.00
H2       0.70605    0.48698    0.38948   1.00
C5       0.64502    0.50262    0.37762   1.00
H2       0.63305    0.47268    0.38131   1.00
H2       0.62762    0.51811    0.35500   1.00
C5       0.64005    0.52445    0.41657   1.00
C5       0.67479    0.51105    0.19846   1.00
C5       0.82816    0.61070    0.29898   1.00
H2       0.69820    0.49088    0.18855   1.00
H2       0.67452    0.53712    0.17896   1.00
H2       0.83073    0.58300    0.31590   1.00
H2       0.80529    0.62895    0.31347   1.00
H2       0.85819    0.69030    0.32478   1.00
H2       0.65174    0.44247    0.15513   1.00
H2       0.63754    0.48763    0.13120   1.00
C2       0.74780    0.39605    0.25153   1.00
C3       0.75764    0.41597    0.21684   1.00
O2       0.75709    0.39674    0.18148   1.00
C3       0.74067    0.41826    0.28561   1.00
H1       0.73407    0.40385    0.31286   1.00
C3a      0.75912    0.45713    0.21667   1.00
H1       0.76450    0.47202    0.18938   1.00
C3b      0.74095    0.45922    0.28504   1.00
C4       0.75014    0.47900    0.25040   1.00
O3       0.67994    0.52167    0.23791   1.00
C5       0.79542    0.38720    0.16986   1.00
H2       0.81384    0.41391    0.16678   1.00
C5       0.79239    0.36674    0.13047   1.00
H2       0.80949    0.36726    0.19137   1.00
H2       0.78857    0.38932    0.10742   1.00
H2       0.76511    0.34907    0.13076   1.00
C5       0.82794    0.34082    0.12141   1.00
H2       0.85514    0.35824    0.12429   1.00
C5       0.82556    0.32453    0.07961   1.00
H2       0.82931    0.31507    0.14141   1.00
C5       0.63564    0.49017    0.19521   1.00
H2       0.61193    0.51215    0.19856   1.00
H2       0.63301    0.46952    0.22019   1.00
C5       0.63154    0.46800    0.15636   1.00
C5       0.58969    0.45225    0.15205   1.00
H2       0.92627    0.69286    0.31439   1.00
H2       0.92085    0.68447    0.36777   1.00
H2       0.93407    0.64323    0.33502   1.00
H2       0.60784    0.53105    0.42154   1.00
H2       0.65145    0.50551    0.44142   1.00
H2       0.65718    0.55293    0.41558   1.00
H2       0.83842    0.29387    0.07891   1.00
H2       0.79376    0.32344    0.06994   1.00
H2       0.84273    0.34423    0.05904   1.00
H2       0.57330    0.45634    0.18069   1.00
H2       0.57404    0.46884    0.12785   1.00
H2       0.59076    0.41990    0.14441   1.00
C5       0.36782    0.29855    0.13288   1.00
H2       0.35255    0.27000    0.13175   1.00
H2       0.38910    0.29818    0.10843   1.00
C5       0.33806    0.33172    0.12724   1.00
C5       0.32877    0.33761    0.08369   1.00
H2       0.34985    0.35944    0.13940   1.00
O3       0.52000    0.31909    0.26555   1.00
C4       0.47900    0.24960    0.25014   1.00
C3c      0.45757    0.25660    0.21592   1.00
H1       0.47275    0.26204    0.18881   1.00
C3d      0.45865    0.24203    0.28504   1.00
C3       0.41646    0.25728    0.21615   1.00
O2       0.39752    0.25956    0.18081   1.00
C3       0.41773    0.24342    0.28553   1.00
H1       0.40343    0.23881    0.31326   1.00
C2       0.39561    0.25088    0.25128   1.00
C5       0.52121    0.32825    0.30570   1.00
H2       0.55162    0.33251    0.31643   1.00
H2       0.50734    0.30477    0.32350   1.00
C5       0.49871    0.36617    0.31156   1.00
H2       0.46863    0.36226    0.29983   1.00
H2       0.51302    0.38948    0.29395   1.00
C5       0.49738    0.37762    0.35498   1.00
H2       0.52732    0.38131    0.36695   1.00
H2       0.48189    0.35500    0.37238   1.00
C5       0.47555    0.41657    0.35995   1.00
C5       0.48895    0.19846    0.32521   1.00
C5       0.38930    0.29898    0.17184   1.00
H2       0.50912    0.18855    0.30180   1.00
H2       0.46288    0.17896    0.32548   1.00
H2       0.41700    0.31590    0.16927   1.00
H2       0.37105    0.31347    0.19471   1.00
H2       0.30970    0.32478    0.14181   1.00
H2       0.55753    0.15513    0.34826   1.00
H2       0.51237    0.13120    0.36246   1.00
C2       0.60395    0.25153    0.25220   1.00
C3       0.58403    0.21684    0.24236   1.00
O2       0.60326    0.18148    0.24291   1.00
C3       0.58174    0.28561    0.25933   1.00
H1       0.59615    0.31286    0.26593   1.00
C3a      0.54287    0.21667    0.24088   1.00
H1       0.52798    0.18938    0.23550   1.00
C3b      0.54078    0.28504    0.25905   1.00
C4       0.52100    0.25040    0.24986   1.00
O3       0.47833    0.23791    0.32006   1.00
C5       0.61280    0.16986    0.20458   1.00
H2       0.58609    0.16678    0.18616   1.00
C5       0.63326    0.13047    0.20761   1.00
H2       0.63274    0.19137    0.19051   1.00
H2       0.61068    0.10742    0.21143   1.00
H2       0.65093    0.13076    0.23489   1.00
C5       0.65918    0.12141    0.17206   1.00
H2       0.64176    0.12429    0.14486   1.00
C5       0.67547    0.07961    0.17444   1.00
H2       0.68493    0.14141    0.17069   1.00
C5       0.50983    0.19521    0.36436   1.00
H2       0.48785    0.19856    0.38807   1.00
H2       0.53048    0.22019    0.36699   1.00
C5       0.53200    0.15636    0.36846   1.00
C5       0.54775    0.15205    0.41031   1.00
H2       0.30714    0.31439    0.07373   1.00
H2       0.31553    0.36777    0.07915   1.00
H2       0.35677    0.33502    0.06593   1.00
H2       0.46895    0.42154    0.39216   1.00
H2       0.49449    0.44142    0.34855   1.00
H2       0.44707    0.41558    0.34282   1.00
H2       0.70613    0.07891    0.16158   1.00
H2       0.67656    0.06994    0.20624   1.00
H2       0.65577    0.05904    0.15727   1.00
H2       0.54366    0.18069    0.42670   1.00
H2       0.53116    0.12785    0.42596   1.00
H2       0.58010    0.14441    0.40924   1.00
C5       1.13218    0.29855    0.36712   1.00
H2       1.14745    0.27000    0.36825   1.00
H2       1.11090    0.29818    0.39157   1.00
C5       1.16194    0.33172    0.37276   1.00
C5       1.17123    0.33761    0.41631   1.00
H2       1.15015    0.35944    0.36060   1.00
O3       0.98000    0.31909    0.23445   1.00
C4       1.02100    0.24960    0.24986   1.00
C3c      1.04243    0.25660    0.28408   1.00
H1       1.02725    0.26204    0.31119   1.00
C3d      1.04135    0.24203    0.21496   1.00
C3       1.08354    0.25728    0.28385   1.00
O2       1.10248    0.25956    0.31919   1.00
C3       1.08227    0.24342    0.21447   1.00
H1       1.09657    0.23881    0.18674   1.00
C2       1.10439    0.25088    0.24872   1.00
C5       0.97879    0.32825    0.19430   1.00
H2       0.94838    0.33251    0.18357   1.00
H2       0.99266    0.30477    0.17650   1.00
C5       1.00129    0.36617    0.18844   1.00
H2       1.03137    0.36226    0.20017   1.00
H2       0.98698    0.38948    0.20605   1.00
C5       1.00262    0.37762    0.14502   1.00
H2       0.97268    0.38131    0.13305   1.00
H2       1.01811    0.35500    0.12762   1.00
C5       1.02445    0.41657    0.14005   1.00
C5       1.01105    0.19846    0.17479   1.00
C5       1.11070    0.29898    0.32816   1.00
H2       0.99088    0.18855    0.19820   1.00
H2       1.03712    0.17896    0.17452   1.00
H2       1.08300    0.31590    0.33073   1.00
H2       1.12895    0.31347    0.30529   1.00
H2       1.19030    0.32478    0.35819   1.00
H2       0.94247    0.15513    0.15174   1.00
H2       0.98763    0.13120    0.13754   1.00
C2       0.89605    0.25153    0.24780   1.00
C3       0.91597    0.21684    0.25764   1.00
O2       0.89674    0.18148    0.25709   1.00
C3       0.91826    0.28561    0.24067   1.00
H1       0.90385    0.31286    0.23407   1.00
C3a      0.95713    0.21667    0.25912   1.00
H1       0.97202    0.18938    0.26450   1.00
C3b      0.95922    0.28504    0.24095   1.00
C4       0.97900    0.25040    0.25014   1.00
O3       1.02167    0.23791    0.17994   1.00
C5       0.88720    0.16986    0.29542   1.00
H2       0.91391    0.16678    0.31384   1.00
C5       0.86674    0.13047    0.29239   1.00
H2       0.86726    0.19137    0.30949   1.00
H2       0.88932    0.10742    0.28857   1.00
H2       0.84907    0.13076    0.26511   1.00
C5       0.84082    0.12141    0.32794   1.00
H2       0.85824    0.12429    0.35514   1.00
C5       0.82453    0.07961    0.32556   1.00
H2       0.81507    0.14141    0.32931   1.00
C5       0.99017    0.19521    0.13564   1.00
H2       1.01215    0.19856    0.11193   1.00
H2       0.96952    0.22019    0.13301   1.00
C5       0.96800    0.15636    0.13154   1.00
C5       0.95225    0.15205    0.08969   1.00
H2       1.19286    0.31439    0.42627   1.00
H2       1.18447    0.36777    0.42085   1.00
H2       1.14323    0.33502    0.43407   1.00
H2       1.03105    0.42154    0.10784   1.00
H2       1.00551    0.44142    0.15145   1.00
H2       1.05293    0.41558    0.15718   1.00
H2       0.79387    0.07891    0.33842   1.00
H2       0.82344    0.06994    0.29376   1.00
H2       0.84423    0.05904    0.34273   1.00
H2       0.95634    0.18069    0.07330   1.00
H2       0.96884    0.12785    0.07404   1.00
H2       0.91990    0.14441    0.09076   1.00
C5       0.63288    -0.13218   0.29855   1.00
H2       0.63175    -0.14745   0.27000   1.00
H2       0.60843    -0.11090   0.29818   1.00
C5       0.62724    -0.16194   0.33172   1.00
C5       0.58369    -0.17123   0.33761   1.00
H2       0.63940    -0.15015   0.35944   1.00
O3       0.76555    0.02000    0.31909   1.00
C4       0.75014    -0.02100   0.24960   1.00
C3c      0.71592    -0.04243   0.25660   1.00
H1       0.68881    -0.02725   0.26204   1.00
C3d      0.78504    -0.04135   0.24203   1.00
C3       0.71615    -0.08354   0.25728   1.00
O2       0.68081    -0.10248   0.25956   1.00
C3       0.78553    -0.08227   0.24342   1.00
H1       0.81326    -0.09657   0.23881   1.00
C2       0.75128    -0.10439   0.25088   1.00
C5       0.80570    0.02121    0.32825   1.00
H2       0.81643    0.05162    0.33251   1.00
H2       0.82350    0.00734    0.30477   1.00
C5       0.81156    -0.00129   0.36617   1.00
H2       0.79983    -0.03137   0.36226   1.00
H2       0.79395    0.01302    0.38948   1.00
C5       0.85498    -0.00262   0.37762   1.00
H2       0.86695    0.02732    0.38131   1.00
H2       0.87238    -0.01811   0.35500   1.00
C5       0.85995    -0.02445   0.41657   1.00
C5       0.82521    -0.01105   0.19846   1.00
C5       0.67184    -0.11070   0.29898   1.00
H2       0.80180    0.00912    0.18855   1.00
H2       0.82548    -0.03712   0.17896   1.00
H2       0.66927    -0.08300   0.31590   1.00
H2       0.69471    -0.12895   0.31347   1.00
H2       0.64181    -0.19030   0.32478   1.00
H2       0.84826    0.05753    0.15513   1.00
H2       0.86246    0.01237    0.13120   1.00
C2       0.75220    0.10395    0.25153   1.00
C3       0.74236    0.08403    0.21684   1.00
O2       0.74291    0.10326    0.18148   1.00
C3       0.75933    0.08174    0.28561   1.00
H1       0.76593    0.09615    0.31286   1.00
C3a      0.74088    0.04287    0.21667   1.00
H1       0.73550    0.02798    0.18938   1.00
C3b      0.75905    0.04078    0.28504   1.00
C4       0.74986    0.02100    0.25040   1.00
O3       0.82006    -0.02167   0.23791   1.00
C5       0.70458    0.11280    0.16986   1.00
H2       0.68616    0.08609    0.16678   1.00
C5       0.70761    0.13326    0.13047   1.00
H2       0.69051    0.13274    0.19137   1.00
H2       0.71143    0.11068    0.10742   1.00
H2       0.73489    0.15093    0.13076   1.00
C5       0.67206    0.15918    0.12141   1.00
H2       0.64486    0.14176    0.12429   1.00
C5       0.67444    0.17547    0.07961   1.00
H2       0.67069    0.18493    0.14141   1.00
C5       0.86436    0.00983    0.19521   1.00
H2       0.88807    -0.01215   0.19856   1.00
H2       0.86699    0.03048    0.22019   1.00
C5       0.86846    0.03200    0.15636   1.00
C5       0.91031    0.04775    0.15205   1.00
H2       0.57373    -0.19286   0.31439   1.00
H2       0.57915    -0.18447   0.36777   1.00
H2       0.56593    -0.14323   0.33502   1.00
H2       0.89216    -0.03105   0.42154   1.00
H2       0.84855    -0.00551   0.44142   1.00
H2       0.84282    -0.05293   0.41558   1.00
H2       0.66158    0.20613    0.07891   1.00
H2       0.70624    0.17656    0.06994   1.00
H2       0.65727    0.15577    0.05904   1.00
H2       0.92670    0.04366    0.18069   1.00
H2       0.92596    0.03116    0.12785   1.00
H2       0.90924    0.08010    0.14441   1.00
C5       0.79855    0.13288    -0.13218   1.00
H2       0.77000    0.13175    -0.14745   1.00
H2       0.79818    0.10843    -0.11090   1.00
C5       0.83172    0.12724    -0.16194   1.00
C5       0.83761    0.08369    -0.17123   1.00
H2       0.85944    0.13940    -0.15015   1.00
O3       0.81909    0.26555    0.02000   1.00
C4       0.74960    0.25014    -0.02100   1.00
C3c      0.75660    0.21592    -0.04243   1.00
H1       0.76204    0.18881    -0.02725   1.00
C3d      0.74203    0.28504    -0.04135   1.00
C3       0.75728    0.21615    -0.08354   1.00
O2       0.75956    0.18081    -0.10248   1.00
C3       0.74342    0.28553    -0.08227   1.00
H1       0.73881    0.31326    -0.09657   1.00
C2       0.75088    0.25128    -0.10439   1.00
C5       0.82825    0.30570    0.02121   1.00
H2       0.83251    0.31643    0.05162   1.00
H2       0.80477    0.32350    0.00734   1.00
C5       0.86617    0.31156    -0.00129   1.00
H2       0.86226    0.29983    -0.03137   1.00
H2       0.88948    0.29395    0.01302   1.00
C5       0.87762    0.35498    -0.00262   1.00
H2       0.88131    0.36695    0.02732   1.00
H2       0.85500    0.37238    -0.01811   1.00
C5       0.91657    0.35995    -0.02445   1.00
C5       0.69846    0.32521    -0.01105   1.00
C5       0.79898    0.17184    -0.11070   1.00
H2       0.68855    0.30180    0.00912   1.00
H2       0.67896    0.32548    -0.03712   1.00
H2       0.81590    0.16927    -0.08300   1.00
H2       0.81347    0.19471    -0.12895   1.00
H2       0.82478    0.14181    -0.19030   1.00
H2       0.65513    0.34826    0.05753   1.00
H2       0.63120    0.36246    0.01237   1.00
C2       0.75153    0.25220    0.10395   1.00
C3       0.71684    0.24236    0.08403   1.00
O2       0.68148    0.24291    0.10326   1.00
C3       0.78561    0.25933    0.08174   1.00
H1       0.81286    0.26593    0.09615   1.00
C3a      0.71667    0.24088    0.04287   1.00
H1       0.68938    0.23550    0.02798   1.00
C3b      0.78504    0.25905    0.04078   1.00
C4       0.75040    0.24986    0.02100   1.00
O3       0.73791    0.32006    -0.02167   1.00
C5       0.66986    0.20458    0.11280   1.00
H2       0.66678    0.18616    0.08609   1.00
C5       0.63047    0.20761    0.13326   1.00
H2       0.69137    0.19051    0.13274   1.00
H2       0.60742    0.21143    0.11068   1.00
H2       0.63076    0.23489    0.15093   1.00
C5       0.62141    0.17206    0.15918   1.00
H2       0.62429    0.14486    0.14176   1.00
C5       0.57961    0.17444    0.17547   1.00
H2       0.64141    0.17069    0.18493   1.00
C5       0.69521    0.36436    0.00983   1.00
H2       0.69856    0.38807    -0.01215   1.00
H2       0.72019    0.36699    0.03048   1.00
C5       0.65636    0.36846    0.03200   1.00
C5       0.65205    0.41031    0.04775   1.00
H2       0.81439    0.07373    -0.19286   1.00
H2       0.86777    0.07915    -0.18447   1.00
H2       0.83502    0.06593    -0.14323   1.00
H2       0.92154    0.39216    -0.03105   1.00
H2       0.94142    0.34855    -0.00551   1.00
H2       0.91558    0.34282    -0.05293   1.00
H2       0.57891    0.16158    0.20613   1.00
H2       0.56994    0.20624    0.17656   1.00
H2       0.55904    0.15727    0.15577   1.00
H2       0.68069    0.42670    0.04366   1.00
H2       0.62785    0.42596    0.03116   1.00
H2       0.64441    0.40924    0.08010   1.00
