data_IRMOF10_SG202_Ligand4_label_f.

_audit_creation_method             'generated by an auxiliary program of Tobunporous'

_symmetry_space_group_name_H-M     'P 1'
_symmetry_Int_Tables_number        1
_symmetry_cell_setting             triclinic

_cell_length_a                    34.2800
_cell_length_b                    34.2800
_cell_length_c                    34.2800
_cell_angle_alpha                 90.0000
_cell_angle_beta                  90.0000
_cell_angle_gamma                 90.0000

loop_
_atom_site_label
_atom_site_fract_x
_atom_site_fract_y
_atom_site_fract_z
_atom_site_occupancy
O1       0.75000    0.75000    0.75000   1.00
Zn1      0.71720    0.78280    0.78280   1.00
Zn1      0.78280    0.71720    0.78280   1.00
Zn1      0.78280    0.78280    0.71720   1.00
Zn1      0.71720    0.71720    0.71720   1.00
O2       0.72650    0.77350    0.83820   1.00
O2       0.72650    0.83820    0.77350   1.00
O2       0.66180    0.77350    0.77350   1.00
O2       0.77350    0.72650    0.83820   1.00
O2       0.83820    0.72650    0.77350   1.00
O2       0.77350    0.66180    0.77350   1.00
O2       0.77350    0.83820    0.72650   1.00
O2       0.83820    0.77350    0.72650   1.00
O2       0.77350    0.77350    0.66180   1.00
O2       0.66180    0.72650    0.72650   1.00
O2       0.72650    0.66180    0.72650   1.00
O2       0.72650    0.72650    0.66180   1.00
C1       0.75000    0.75000    0.85520   1.00
C1       0.75000    0.85520    0.75000   1.00
C1       0.64480    0.75000    0.75000   1.00
C1       0.85520    0.75000    0.75000   1.00
C1       0.75000    0.64480    0.75000   1.00
C1       0.75000    0.75000    0.64480   1.00
O1       0.25000    0.25000    0.75000   1.00
Zn1      0.21720    0.28280    0.78280   1.00
Zn1      0.28280    0.21720    0.78280   1.00
Zn1      0.28280    0.28280    0.71720   1.00
Zn1      0.21720    0.21720    0.71720   1.00
O2       0.22650    0.27350    0.83820   1.00
O2       0.22650    0.33820    0.77350   1.00
O2       0.16180    0.27350    0.77350   1.00
O2       0.27350    0.22650    0.83820   1.00
O2       0.33820    0.22650    0.77350   1.00
O2       0.27350    0.16180    0.77350   1.00
O2       0.27350    0.33820    0.72650   1.00
O2       0.33820    0.27350    0.72650   1.00
O2       0.27350    0.27350    0.66180   1.00
O2       0.16180    0.22650    0.72650   1.00
O2       0.22650    0.16180    0.72650   1.00
O2       0.22650    0.22650    0.66180   1.00
C1       0.25000    0.25000    0.85520   1.00
C1       0.25000    0.35520    0.75000   1.00
C1       0.14480    0.25000    0.75000   1.00
C1       0.35520    0.25000    0.75000   1.00
C1       0.25000    0.14480    0.75000   1.00
C1       0.25000    0.25000    0.64480   1.00
O1       0.25000    0.75000    0.25000   1.00
Zn1      0.21720    0.78280    0.28280   1.00
Zn1      0.28280    0.71720    0.28280   1.00
Zn1      0.28280    0.78280    0.21720   1.00
Zn1      0.21720    0.71720    0.21720   1.00
O2       0.22650    0.77350    0.33820   1.00
O2       0.22650    0.83820    0.27350   1.00
O2       0.16180    0.77350    0.27350   1.00
O2       0.27350    0.72650    0.33820   1.00
O2       0.33820    0.72650    0.27350   1.00
O2       0.27350    0.66180    0.27350   1.00
O2       0.27350    0.83820    0.22650   1.00
O2       0.33820    0.77350    0.22650   1.00
O2       0.27350    0.77350    0.16180   1.00
O2       0.16180    0.72650    0.22650   1.00
O2       0.22650    0.66180    0.22650   1.00
O2       0.22650    0.72650    0.16180   1.00
C1       0.25000    0.75000    0.35520   1.00
C1       0.25000    0.85520    0.25000   1.00
C1       0.14480    0.75000    0.25000   1.00
C1       0.35520    0.75000    0.25000   1.00
C1       0.25000    0.64480    0.25000   1.00
C1       0.25000    0.75000    0.14480   1.00
O1       0.75000    0.25000    0.25000   1.00
Zn1      0.71720    0.28280    0.28280   1.00
Zn1      0.78280    0.21720    0.28280   1.00
Zn1      0.78280    0.28280    0.21720   1.00
Zn1      0.71720    0.21720    0.21720   1.00
O2       0.72650    0.27350    0.33820   1.00
O2       0.72650    0.33820    0.27350   1.00
O2       0.66180    0.27350    0.27350   1.00
O2       0.77350    0.22650    0.33820   1.00
O2       0.83820    0.22650    0.27350   1.00
O2       0.77350    0.16180    0.27350   1.00
O2       0.77350    0.33820    0.22650   1.00
O2       0.83820    0.27350    0.22650   1.00
O2       0.77350    0.27350    0.16180   1.00
O2       0.66180    0.22650    0.22650   1.00
O2       0.72650    0.16180    0.22650   1.00
O2       0.72650    0.22650    0.16180   1.00
C1       0.75000    0.25000    0.35520   1.00
C1       0.75000    0.35520    0.25000   1.00
C1       0.64480    0.25000    0.25000   1.00
C1       0.85520    0.25000    0.25000   1.00
C1       0.75000    0.14480    0.25000   1.00
C1       0.75000    0.25000    0.14480   1.00
O1       0.25000    0.25000    0.25000   1.00
Zn1      0.28280    0.21720    0.21720   1.00
Zn1      0.21720    0.28280    0.21720   1.00
Zn1      0.21720    0.21720    0.28280   1.00
Zn1      0.28280    0.28280    0.28280   1.00
O2       0.27350    0.22650    0.16180   1.00
O2       0.27350    0.16180    0.22650   1.00
O2       0.33820    0.22650    0.22650   1.00
O2       0.22650    0.27350    0.16180   1.00
O2       0.16180    0.27350    0.22650   1.00
O2       0.22650    0.33820    0.22650   1.00
O2       0.22650    0.16180    0.27350   1.00
O2       0.16180    0.22650    0.27350   1.00
O2       0.22650    0.22650    0.33820   1.00
O2       0.33820    0.27350    0.27350   1.00
O2       0.27350    0.33820    0.27350   1.00
O2       0.27350    0.27350    0.33820   1.00
C1       0.25000    0.25000    0.14480   1.00
C1       0.25000    0.14480    0.25000   1.00
C1       0.35520    0.25000    0.25000   1.00
C1       0.14480    0.25000    0.25000   1.00
C1       0.25000    0.35520    0.25000   1.00
C1       0.25000    0.25000    0.35520   1.00
O1       0.75000    0.75000    0.25000   1.00
Zn1      0.78280    0.71720    0.21720   1.00
Zn1      0.71720    0.78280    0.21720   1.00
Zn1      0.71720    0.71720    0.28280   1.00
Zn1      0.78280    0.78280    0.28280   1.00
O2       0.77350    0.72650    0.16180   1.00
O2       0.77350    0.66180    0.22650   1.00
O2       0.83820    0.72650    0.22650   1.00
O2       0.72650    0.77350    0.16180   1.00
O2       0.66180    0.77350    0.22650   1.00
O2       0.72650    0.83820    0.22650   1.00
O2       0.72650    0.66180    0.27350   1.00
O2       0.66180    0.72650    0.27350   1.00
O2       0.72650    0.72650    0.33820   1.00
O2       0.83820    0.77350    0.27350   1.00
O2       0.77350    0.83820    0.27350   1.00
O2       0.77350    0.77350    0.33820   1.00
C1       0.75000    0.75000    0.14480   1.00
C1       0.75000    0.64480    0.25000   1.00
C1       0.85520    0.75000    0.25000   1.00
C1       0.64480    0.75000    0.25000   1.00
C1       0.75000    0.85520    0.25000   1.00
C1       0.75000    0.75000    0.35520   1.00
O1       0.75000    0.25000    0.75000   1.00
Zn1      0.78280    0.21720    0.71720   1.00
Zn1      0.71720    0.28280    0.71720   1.00
Zn1      0.71720    0.21720    0.78280   1.00
Zn1      0.78280    0.28280    0.78280   1.00
O2       0.77350    0.22650    0.66180   1.00
O2       0.77350    0.16180    0.72650   1.00
O2       0.83820    0.22650    0.72650   1.00
O2       0.72650    0.27350    0.66180   1.00
O2       0.66180    0.27350    0.72650   1.00
O2       0.72650    0.33820    0.72650   1.00
O2       0.72650    0.16180    0.77350   1.00
O2       0.66180    0.22650    0.77350   1.00
O2       0.72650    0.22650    0.83820   1.00
O2       0.83820    0.27350    0.77350   1.00
O2       0.77350    0.33820    0.77350   1.00
O2       0.77350    0.27350    0.83820   1.00
C1       0.75000    0.25000    0.64480   1.00
C1       0.75000    0.14480    0.75000   1.00
C1       0.85520    0.25000    0.75000   1.00
C1       0.64480    0.25000    0.75000   1.00
C1       0.75000    0.35520    0.75000   1.00
C1       0.75000    0.25000    0.85520   1.00
O1       0.25000    0.75000    0.75000   1.00
Zn1      0.28280    0.71720    0.71720   1.00
Zn1      0.21720    0.78280    0.71720   1.00
Zn1      0.21720    0.71720    0.78280   1.00
Zn1      0.28280    0.78280    0.78280   1.00
O2       0.27350    0.72650    0.66180   1.00
O2       0.27350    0.66180    0.72650   1.00
O2       0.33820    0.72650    0.72650   1.00
O2       0.22650    0.77350    0.66180   1.00
O2       0.16180    0.77350    0.72650   1.00
O2       0.22650    0.83820    0.72650   1.00
O2       0.22650    0.66180    0.77350   1.00
O2       0.16180    0.72650    0.77350   1.00
O2       0.22650    0.72650    0.83820   1.00
O2       0.33820    0.77350    0.77350   1.00
O2       0.27350    0.83820    0.77350   1.00
O2       0.27350    0.77350    0.83820   1.00
C1       0.25000    0.75000    0.64480   1.00
C1       0.25000    0.64480    0.75000   1.00
C1       0.35520    0.75000    0.75000   1.00
C1       0.14480    0.75000    0.75000   1.00
C1       0.25000    0.85520    0.75000   1.00
C1       0.25000    0.75000    0.85520   1.00
C4       0.74751    0.74590    0.98025   1.00
C4       0.74597    0.74576    1.02191   1.00
C3       0.77672    0.72532    0.95897   1.00
C3       0.77090    0.72183    1.04504   1.00
C3       0.71904    0.76734    0.95854   1.00
C3       0.71859    0.77026    1.04170   1.00
C2       0.74953    0.74460    0.89595   1.00
C2       0.74420    0.74686    1.10622   1.00
C3       0.77764    0.72448    0.91811   1.00
C3       0.77023    0.72246    1.08591   1.00
C3       0.72087    0.76555    0.91696   1.00
C3       0.71900    0.77020    1.08336   1.00
H1       0.79864    0.71049    0.97237   1.00
H1       0.79021    0.70276    1.03306   1.00
C5       0.68991    0.78994    0.97835   1.00
C5       0.69164    0.79378    1.01998   1.00
H1       0.79937    0.70897    0.90451   1.00
H1       0.78907    0.70461    1.10091   1.00
H1       0.70098    0.78019    0.90052   1.00
H1       0.70015    0.78743    1.09848   1.00
C6       0.65752    0.80905    0.95515   1.00
C6       0.66573    0.82261    1.04119   1.00
H2       0.64675    0.78845    0.93345   1.00
H2       0.68297    0.83789    1.06310   1.00
H2       0.63165    0.81382    0.97286   1.00
H2       0.65680    0.84646    1.02228   1.00
C6       0.67000    0.84871    0.93606   1.00
C6       0.62846    0.80334    1.05942   1.00
H2       0.69890    0.84561    0.92292   1.00
H2       0.63652    0.77604    1.07383   1.00
C6       0.64218    0.86667    0.90459   1.00
C6       0.60422    0.82820    1.08911   1.00
H2       0.67367    0.87002    0.95949   1.00
H2       0.60923    0.79482    1.03546   1.00
C6       0.64026    0.84100    0.86735   1.00
C6       0.62750    0.83630    1.12708   1.00
C6       0.60038    0.87266    0.92074   1.00
C6       0.59097    0.86747    1.07107   1.00
C6       0.65841    0.90720    0.89245   1.00
C6       0.56711    0.80484    1.10054   1.00
H2       0.66940    0.83569    0.85558   1.00
H2       0.63783    0.80915    1.14020   1.00
H2       0.62685    0.81281    0.87330   1.00
H2       0.65280    0.85471    1.12154   1.00
H2       0.62299    0.85506    0.84459   1.00
H2       0.60946    0.85127    1.14863   1.00
H2       0.58198    0.88773    0.89955   1.00
H2       0.57179    0.88330    1.09098   1.00
H2       0.58657    0.84476    0.92725   1.00
H2       0.61594    0.88620    1.06494   1.00
H2       0.60098    0.88998    0.94745   1.00
H2       0.57519    0.86263    1.04385   1.00
H2       0.68780    0.90456    0.88042   1.00
H2       0.57485    0.77693    1.11383   1.00
H2       0.64007    0.92084    0.87025   1.00
H2       0.54930    0.82093    1.12149   1.00
H2       0.65973    0.92695    0.91739   1.00
H2       0.54901    0.79888    1.07502   1.00
C4       0.74590    0.98025    0.74751   1.00
C4       0.74576    1.02191    0.74597   1.00
C3       0.72532    0.95897    0.77672   1.00
C3       0.72183    1.04504    0.77090   1.00
C3       0.76734    0.95854    0.71904   1.00
C3       0.77026    1.04170    0.71859   1.00
C2       0.74460    0.89595    0.74953   1.00
C2       0.74686    1.10622    0.74420   1.00
C3       0.72448    0.91811    0.77764   1.00
C3       0.72246    1.08591    0.77023   1.00
C3       0.76555    0.91696    0.72087   1.00
C3       0.77020    1.08336    0.71900   1.00
H1       0.71049    0.97237    0.79864   1.00
H1       0.70276    1.03306    0.79021   1.00
C5       0.78994    0.97835    0.68991   1.00
C5       0.79378    1.01998    0.69164   1.00
H1       0.70897    0.90451    0.79937   1.00
H1       0.70461    1.10091    0.78907   1.00
H1       0.78019    0.90052    0.70098   1.00
H1       0.78743    1.09848    0.70015   1.00
C6       0.80905    0.95515    0.65752   1.00
C6       0.82261    1.04119    0.66573   1.00
H2       0.78845    0.93345    0.64675   1.00
H2       0.83789    1.06310    0.68297   1.00
H2       0.81382    0.97286    0.63165   1.00
H2       0.84646    1.02228    0.65680   1.00
C6       0.84871    0.93606    0.67000   1.00
C6       0.80334    1.05942    0.62846   1.00
H2       0.84561    0.92292    0.69890   1.00
H2       0.77604    1.07383    0.63652   1.00
C6       0.86667    0.90459    0.64218   1.00
C6       0.82820    1.08911    0.60422   1.00
H2       0.87002    0.95949    0.67367   1.00
H2       0.79482    1.03546    0.60923   1.00
C6       0.84100    0.86735    0.64026   1.00
C6       0.83630    1.12708    0.62750   1.00
C6       0.87266    0.92074    0.60038   1.00
C6       0.86747    1.07107    0.59097   1.00
C6       0.90720    0.89245    0.65841   1.00
C6       0.80484    1.10054    0.56711   1.00
H2       0.83569    0.85558    0.66940   1.00
H2       0.80915    1.14020    0.63783   1.00
H2       0.81281    0.87330    0.62685   1.00
H2       0.85471    1.12154    0.65280   1.00
H2       0.85506    0.84459    0.62299   1.00
H2       0.85127    1.14863    0.60946   1.00
H2       0.88773    0.89955    0.58198   1.00
H2       0.88330    1.09098    0.57179   1.00
H2       0.84476    0.92725    0.58657   1.00
H2       0.88620    1.06494    0.61594   1.00
H2       0.88998    0.94745    0.60098   1.00
H2       0.86263    1.04385    0.57519   1.00
H2       0.90456    0.88042    0.68780   1.00
H2       0.77693    1.11383    0.57485   1.00
H2       0.92084    0.87025    0.64007   1.00
H2       0.82093    1.12149    0.54930   1.00
H2       0.92695    0.91739    0.65973   1.00
H2       0.79888    1.07502    0.54901   1.00
C4       0.51975    0.74751    0.75410   1.00
C4       0.47809    0.74597    0.75424   1.00
C3       0.54103    0.77672    0.77468   1.00
C3       0.45496    0.77090    0.77817   1.00
C3       0.54146    0.71904    0.73266   1.00
C3       0.45830    0.71859    0.72974   1.00
C2       0.60405    0.74953    0.75540   1.00
C2       0.39378    0.74420    0.75314   1.00
C3       0.58189    0.77764    0.77552   1.00
C3       0.41409    0.77023    0.77754   1.00
C3       0.58304    0.72087    0.73445   1.00
C3       0.41664    0.71900    0.72980   1.00
H1       0.52763    0.79864    0.78951   1.00
H1       0.46694    0.79021    0.79724   1.00
C5       0.52165    0.68991    0.71006   1.00
C5       0.48002    0.69164    0.70622   1.00
H1       0.59549    0.79937    0.79103   1.00
H1       0.39909    0.78907    0.79539   1.00
H1       0.59948    0.70098    0.71981   1.00
H1       0.40152    0.70015    0.71257   1.00
C6       0.54485    0.65752    0.69095   1.00
C6       0.45881    0.66573    0.67739   1.00
H2       0.56655    0.64675    0.71155   1.00
H2       0.43690    0.68297    0.66211   1.00
H2       0.52714    0.63165    0.68618   1.00
H2       0.47772    0.65680    0.65354   1.00
C6       0.56394    0.67000    0.65129   1.00
C6       0.44058    0.62846    0.69666   1.00
H2       0.57708    0.69890    0.65439   1.00
H2       0.42617    0.63652    0.72396   1.00
C6       0.59541    0.64218    0.63333   1.00
C6       0.41089    0.60422    0.67180   1.00
H2       0.54051    0.67367    0.62998   1.00
H2       0.46454    0.60923    0.70518   1.00
C6       0.63265    0.64026    0.65900   1.00
C6       0.37292    0.62750    0.66370   1.00
C6       0.57926    0.60038    0.62734   1.00
C6       0.42893    0.59097    0.63253   1.00
C6       0.60755    0.65841    0.59280   1.00
C6       0.39946    0.56711    0.69516   1.00
H2       0.64442    0.66940    0.66431   1.00
H2       0.35980    0.63783    0.69085   1.00
H2       0.62670    0.62685    0.68719   1.00
H2       0.37846    0.65280    0.64529   1.00
H2       0.65541    0.62299    0.64494   1.00
H2       0.35137    0.60946    0.64873   1.00
H2       0.60045    0.58198    0.61227   1.00
H2       0.40902    0.57179    0.61670   1.00
H2       0.57275    0.58657    0.65524   1.00
H2       0.43506    0.61594    0.61380   1.00
H2       0.55255    0.60098    0.61002   1.00
H2       0.45615    0.57519    0.63737   1.00
H2       0.61958    0.68780    0.59544   1.00
H2       0.38617    0.57485    0.72307   1.00
H2       0.62975    0.64007    0.57916   1.00
H2       0.37851    0.54930    0.67907   1.00
H2       0.58261    0.65973    0.57305   1.00
H2       0.42498    0.54901    0.70112   1.00
C4       0.98025    0.74751    0.74590   1.00
C4       1.02191    0.74597    0.74576   1.00
C3       0.95897    0.77672    0.72532   1.00
C3       1.04504    0.77090    0.72183   1.00
C3       0.95854    0.71904    0.76734   1.00
C3       1.04170    0.71859    0.77026   1.00
C2       0.89595    0.74953    0.74460   1.00
C2       1.10622    0.74420    0.74686   1.00
C3       0.91811    0.77764    0.72448   1.00
C3       1.08591    0.77023    0.72246   1.00
C3       0.91696    0.72087    0.76555   1.00
C3       1.08336    0.71900    0.77020   1.00
H1       0.97237    0.79864    0.71049   1.00
H1       1.03306    0.79021    0.70276   1.00
C5       0.97835    0.68991    0.78994   1.00
C5       1.01998    0.69164    0.79378   1.00
H1       0.90451    0.79937    0.70897   1.00
H1       1.10091    0.78907    0.70461   1.00
H1       0.90052    0.70098    0.78019   1.00
H1       1.09848    0.70015    0.78743   1.00
C6       0.95515    0.65752    0.80905   1.00
C6       1.04119    0.66573    0.82261   1.00
H2       0.93345    0.64675    0.78845   1.00
H2       1.06310    0.68297    0.83789   1.00
H2       0.97286    0.63165    0.81382   1.00
H2       1.02228    0.65680    0.84646   1.00
C6       0.93606    0.67000    0.84871   1.00
C6       1.05942    0.62846    0.80334   1.00
H2       0.92292    0.69890    0.84561   1.00
H2       1.07383    0.63652    0.77604   1.00
C6       0.90459    0.64218    0.86667   1.00
C6       1.08911    0.60422    0.82820   1.00
H2       0.95949    0.67367    0.87002   1.00
H2       1.03546    0.60923    0.79482   1.00
C6       0.86735    0.64026    0.84100   1.00
C6       1.12708    0.62750    0.83630   1.00
C6       0.92074    0.60038    0.87266   1.00
C6       1.07107    0.59097    0.86747   1.00
C6       0.89245    0.65841    0.90720   1.00
C6       1.10054    0.56711    0.80484   1.00
H2       0.85558    0.66940    0.83569   1.00
H2       1.14020    0.63783    0.80915   1.00
H2       0.87330    0.62685    0.81281   1.00
H2       1.12154    0.65280    0.85471   1.00
H2       0.84459    0.62299    0.85506   1.00
H2       1.14863    0.60946    0.85127   1.00
H2       0.89955    0.58198    0.88773   1.00
H2       1.09098    0.57179    0.88330   1.00
H2       0.92725    0.58657    0.84476   1.00
H2       1.06494    0.61594    0.88620   1.00
H2       0.94745    0.60098    0.88998   1.00
H2       1.04385    0.57519    0.86263   1.00
H2       0.88042    0.68780    0.90456   1.00
H2       1.11383    0.57485    0.77693   1.00
H2       0.87025    0.64007    0.92084   1.00
H2       1.12149    0.54930    0.82093   1.00
H2       0.91739    0.65973    0.92695   1.00
H2       1.07502    0.54901    0.79888   1.00
C4       0.75410    0.51975    0.74751   1.00
C4       0.75424    0.47809    0.74597   1.00
C3       0.77468    0.54103    0.77672   1.00
C3       0.77817    0.45496    0.77090   1.00
C3       0.73266    0.54146    0.71904   1.00
C3       0.72974    0.45830    0.71859   1.00
C2       0.75540    0.60405    0.74953   1.00
C2       0.75314    0.39378    0.74420   1.00
C3       0.77552    0.58189    0.77764   1.00
C3       0.77754    0.41409    0.77023   1.00
C3       0.73445    0.58304    0.72087   1.00
C3       0.72980    0.41664    0.71900   1.00
H1       0.78951    0.52763    0.79864   1.00
H1       0.79724    0.46694    0.79021   1.00
C5       0.71006    0.52165    0.68991   1.00
C5       0.70622    0.48002    0.69164   1.00
H1       0.79103    0.59549    0.79937   1.00
H1       0.79539    0.39909    0.78907   1.00
H1       0.71981    0.59948    0.70098   1.00
H1       0.71257    0.40152    0.70015   1.00
C6       0.69095    0.54485    0.65752   1.00
C6       0.67739    0.45881    0.66573   1.00
H2       0.71155    0.56655    0.64675   1.00
H2       0.66211    0.43690    0.68297   1.00
H2       0.68618    0.52714    0.63165   1.00
H2       0.65354    0.47772    0.65680   1.00
C6       0.65129    0.56394    0.67000   1.00
C6       0.69666    0.44058    0.62846   1.00
H2       0.65439    0.57708    0.69890   1.00
H2       0.72396    0.42617    0.63652   1.00
C6       0.63333    0.59541    0.64218   1.00
C6       0.67180    0.41089    0.60422   1.00
H2       0.62998    0.54051    0.67367   1.00
H2       0.70518    0.46454    0.60923   1.00
C6       0.65900    0.63265    0.64026   1.00
C6       0.66370    0.37292    0.62750   1.00
C6       0.62734    0.57926    0.60038   1.00
C6       0.63253    0.42893    0.59097   1.00
C6       0.59280    0.60755    0.65841   1.00
C6       0.69516    0.39946    0.56711   1.00
H2       0.66431    0.64442    0.66940   1.00
H2       0.69085    0.35980    0.63783   1.00
H2       0.68719    0.62670    0.62685   1.00
H2       0.64529    0.37846    0.65280   1.00
H2       0.64494    0.65541    0.62299   1.00
H2       0.64873    0.35137    0.60946   1.00
H2       0.61227    0.60045    0.58198   1.00
H2       0.61670    0.40902    0.57179   1.00
H2       0.65524    0.57275    0.58657   1.00
H2       0.61380    0.43506    0.61594   1.00
H2       0.61002    0.55255    0.60098   1.00
H2       0.63737    0.45615    0.57519   1.00
H2       0.59544    0.61958    0.68780   1.00
H2       0.72307    0.38617    0.57485   1.00
H2       0.57916    0.62975    0.64007   1.00
H2       0.67907    0.37851    0.54930   1.00
H2       0.57305    0.58261    0.65973   1.00
H2       0.70112    0.42498    0.54901   1.00
C4       0.74751    0.75410    0.51975   1.00
C4       0.74597    0.75424    0.47809   1.00
C3       0.77672    0.77468    0.54103   1.00
C3       0.77090    0.77817    0.45496   1.00
C3       0.71904    0.73266    0.54146   1.00
C3       0.71859    0.72974    0.45830   1.00
C2       0.74953    0.75540    0.60405   1.00
C2       0.74420    0.75314    0.39378   1.00
C3       0.77764    0.77552    0.58189   1.00
C3       0.77023    0.77754    0.41409   1.00
C3       0.72087    0.73445    0.58304   1.00
C3       0.71900    0.72980    0.41664   1.00
H1       0.79864    0.78951    0.52763   1.00
H1       0.79021    0.79724    0.46694   1.00
C5       0.68991    0.71006    0.52165   1.00
C5       0.69164    0.70622    0.48002   1.00
H1       0.79937    0.79103    0.59549   1.00
H1       0.78907    0.79539    0.39909   1.00
H1       0.70098    0.71981    0.59948   1.00
H1       0.70015    0.71257    0.40152   1.00
C6       0.65752    0.69095    0.54485   1.00
C6       0.66573    0.67739    0.45881   1.00
H2       0.64675    0.71155    0.56655   1.00
H2       0.68297    0.66211    0.43690   1.00
H2       0.63165    0.68618    0.52714   1.00
H2       0.65680    0.65354    0.47772   1.00
C6       0.67000    0.65129    0.56394   1.00
C6       0.62846    0.69666    0.44058   1.00
H2       0.69890    0.65439    0.57708   1.00
H2       0.63652    0.72396    0.42617   1.00
C6       0.64218    0.63333    0.59541   1.00
C6       0.60422    0.67180    0.41089   1.00
H2       0.67367    0.62998    0.54051   1.00
H2       0.60923    0.70518    0.46454   1.00
C6       0.64026    0.65900    0.63265   1.00
C6       0.62750    0.66370    0.37292   1.00
C6       0.60038    0.62734    0.57926   1.00
C6       0.59097    0.63253    0.42893   1.00
C6       0.65841    0.59280    0.60755   1.00
C6       0.56711    0.69516    0.39946   1.00
H2       0.66940    0.66431    0.64442   1.00
H2       0.63783    0.69085    0.35980   1.00
H2       0.62685    0.68719    0.62670   1.00
H2       0.65280    0.64529    0.37846   1.00
H2       0.62299    0.64494    0.65541   1.00
H2       0.60946    0.64873    0.35137   1.00
H2       0.58198    0.61227    0.60045   1.00
H2       0.57179    0.61670    0.40902   1.00
H2       0.58657    0.65524    0.57275   1.00
H2       0.61594    0.61380    0.43506   1.00
H2       0.60098    0.61002    0.55255   1.00
H2       0.57519    0.63737    0.45615   1.00
H2       0.68780    0.59544    0.61958   1.00
H2       0.57485    0.72307    0.38617   1.00
H2       0.64007    0.57916    0.62975   1.00
H2       0.54930    0.67907    0.37851   1.00
H2       0.65973    0.57305    0.58261   1.00
H2       0.54901    0.70112    0.42498   1.00
C4       0.24751    0.24590    0.98025   1.00
C4       0.24597    0.24576    1.02191   1.00
C3       0.27672    0.22532    0.95897   1.00
C3       0.27090    0.22183    1.04504   1.00
C3       0.21904    0.26734    0.95854   1.00
C3       0.21859    0.27026    1.04170   1.00
C2       0.24953    0.24460    0.89595   1.00
C2       0.24420    0.24686    1.10622   1.00
C3       0.27764    0.22448    0.91811   1.00
C3       0.27023    0.22246    1.08591   1.00
C3       0.22087    0.26555    0.91696   1.00
C3       0.21900    0.27020    1.08336   1.00
H1       0.29864    0.21049    0.97237   1.00
H1       0.29021    0.20276    1.03306   1.00
C5       0.18991    0.28994    0.97835   1.00
C5       0.19164    0.29378    1.01998   1.00
H1       0.29937    0.20897    0.90451   1.00
H1       0.28907    0.20461    1.10091   1.00
H1       0.20098    0.28019    0.90052   1.00
H1       0.20015    0.28743    1.09848   1.00
C6       0.15752    0.30905    0.95515   1.00
C6       0.16573    0.32261    1.04119   1.00
H2       0.14675    0.28845    0.93345   1.00
H2       0.18297    0.33789    1.06310   1.00
H2       0.13165    0.31382    0.97286   1.00
H2       0.15680    0.34646    1.02228   1.00
C6       0.17000    0.34871    0.93606   1.00
C6       0.12846    0.30334    1.05942   1.00
H2       0.19890    0.34561    0.92292   1.00
H2       0.13652    0.27604    1.07383   1.00
C6       0.14218    0.36667    0.90459   1.00
C6       0.10422    0.32820    1.08911   1.00
H2       0.17367    0.37002    0.95949   1.00
H2       0.10923    0.29482    1.03546   1.00
C6       0.14026    0.34100    0.86735   1.00
C6       0.12750    0.33630    1.12708   1.00
C6       0.10038    0.37266    0.92074   1.00
C6       0.09097    0.36747    1.07107   1.00
C6       0.15841    0.40720    0.89245   1.00
C6       0.06711    0.30484    1.10054   1.00
H2       0.16940    0.33569    0.85558   1.00
H2       0.13783    0.30915    1.14020   1.00
H2       0.12685    0.31281    0.87330   1.00
H2       0.15280    0.35471    1.12154   1.00
H2       0.12299    0.35506    0.84459   1.00
H2       0.10946    0.35127    1.14863   1.00
H2       0.08198    0.38773    0.89955   1.00
H2       0.07179    0.38330    1.09098   1.00
H2       0.08657    0.34476    0.92725   1.00
H2       0.11594    0.38620    1.06494   1.00
H2       0.10098    0.38998    0.94745   1.00
H2       0.07519    0.36263    1.04385   1.00
H2       0.18780    0.40456    0.88042   1.00
H2       0.07485    0.27693    1.11383   1.00
H2       0.14007    0.42084    0.87025   1.00
H2       0.04930    0.32093    1.12149   1.00
H2       0.15973    0.42695    0.91739   1.00
H2       0.04901    0.29888    1.07502   1.00
C4       0.24590    0.48025    0.74751   1.00
C4       0.24576    0.52191    0.74597   1.00
C3       0.22532    0.45897    0.77672   1.00
C3       0.22183    0.54504    0.77090   1.00
C3       0.26734    0.45854    0.71904   1.00
C3       0.27026    0.54170    0.71859   1.00
C2       0.24460    0.39595    0.74953   1.00
C2       0.24686    0.60622    0.74420   1.00
C3       0.22448    0.41811    0.77764   1.00
C3       0.22246    0.58591    0.77023   1.00
C3       0.26555    0.41696    0.72087   1.00
C3       0.27020    0.58336    0.71900   1.00
H1       0.21049    0.47237    0.79864   1.00
H1       0.20276    0.53306    0.79021   1.00
C5       0.28994    0.47835    0.68991   1.00
C5       0.29378    0.51998    0.69164   1.00
H1       0.20897    0.40451    0.79937   1.00
H1       0.20461    0.60091    0.78907   1.00
H1       0.28019    0.40052    0.70098   1.00
H1       0.28743    0.59848    0.70015   1.00
C6       0.30905    0.45515    0.65752   1.00
C6       0.32261    0.54119    0.66573   1.00
H2       0.28845    0.43345    0.64675   1.00
H2       0.33789    0.56310    0.68297   1.00
H2       0.31382    0.47286    0.63165   1.00
H2       0.34646    0.52228    0.65680   1.00
C6       0.34871    0.43606    0.67000   1.00
C6       0.30334    0.55942    0.62846   1.00
H2       0.34561    0.42292    0.69890   1.00
H2       0.27604    0.57383    0.63652   1.00
C6       0.36667    0.40459    0.64218   1.00
C6       0.32820    0.58911    0.60422   1.00
H2       0.37002    0.45949    0.67367   1.00
H2       0.29482    0.53546    0.60923   1.00
C6       0.34100    0.36735    0.64026   1.00
C6       0.33630    0.62708    0.62750   1.00
C6       0.37266    0.42074    0.60038   1.00
C6       0.36747    0.57107    0.59097   1.00
C6       0.40720    0.39245    0.65841   1.00
C6       0.30484    0.60054    0.56711   1.00
H2       0.33569    0.35558    0.66940   1.00
H2       0.30915    0.64020    0.63783   1.00
H2       0.31281    0.37330    0.62685   1.00
H2       0.35471    0.62154    0.65280   1.00
H2       0.35506    0.34459    0.62299   1.00
H2       0.35127    0.64863    0.60946   1.00
H2       0.38773    0.39955    0.58198   1.00
H2       0.38330    0.59098    0.57179   1.00
H2       0.34476    0.42725    0.58657   1.00
H2       0.38620    0.56494    0.61594   1.00
H2       0.38998    0.44745    0.60098   1.00
H2       0.36263    0.54385    0.57519   1.00
H2       0.40456    0.38042    0.68780   1.00
H2       0.27693    0.61383    0.57485   1.00
H2       0.42084    0.37025    0.64007   1.00
H2       0.32093    0.62149    0.54930   1.00
H2       0.42695    0.41739    0.65973   1.00
H2       0.29888    0.57502    0.54901   1.00
C4       0.01975    0.24751    0.75410   1.00
C4       -0.02191   0.24597    0.75424   1.00
C3       0.04103    0.27672    0.77468   1.00
C3       -0.04504   0.27090    0.77817   1.00
C3       0.04146    0.21904    0.73266   1.00
C3       -0.04170   0.21859    0.72974   1.00
C2       0.10405    0.24953    0.75540   1.00
C2       -0.10622   0.24420    0.75314   1.00
C3       0.08189    0.27764    0.77552   1.00
C3       -0.08591   0.27023    0.77754   1.00
C3       0.08304    0.22087    0.73445   1.00
C3       -0.08336   0.21900    0.72980   1.00
H1       0.02763    0.29864    0.78951   1.00
H1       -0.03306   0.29021    0.79724   1.00
C5       0.02165    0.18991    0.71006   1.00
C5       -0.01998   0.19164    0.70622   1.00
H1       0.09549    0.29937    0.79103   1.00
H1       -0.10091   0.28907    0.79539   1.00
H1       0.09948    0.20098    0.71981   1.00
H1       -0.09848   0.20015    0.71257   1.00
C6       0.04485    0.15752    0.69095   1.00
C6       -0.04119   0.16573    0.67739   1.00
H2       0.06655    0.14675    0.71155   1.00
H2       -0.06310   0.18297    0.66211   1.00
H2       0.02714    0.13165    0.68618   1.00
H2       -0.02228   0.15680    0.65354   1.00
C6       0.06394    0.17000    0.65129   1.00
C6       -0.05942   0.12846    0.69666   1.00
H2       0.07708    0.19890    0.65439   1.00
H2       -0.07383   0.13652    0.72396   1.00
C6       0.09541    0.14218    0.63333   1.00
C6       -0.08911   0.10422    0.67180   1.00
H2       0.04051    0.17367    0.62998   1.00
H2       -0.03546   0.10923    0.70518   1.00
C6       0.13265    0.14026    0.65900   1.00
C6       -0.12708   0.12750    0.66370   1.00
C6       0.07926    0.10038    0.62734   1.00
C6       -0.07107   0.09097    0.63253   1.00
C6       0.10755    0.15841    0.59280   1.00
C6       -0.10054   0.06711    0.69516   1.00
H2       0.14442    0.16940    0.66431   1.00
H2       -0.14020   0.13783    0.69085   1.00
H2       0.12670    0.12685    0.68719   1.00
H2       -0.12154   0.15280    0.64529   1.00
H2       0.15541    0.12299    0.64494   1.00
H2       -0.14863   0.10946    0.64873   1.00
H2       0.10045    0.08198    0.61227   1.00
H2       -0.09098   0.07179    0.61670   1.00
H2       0.07275    0.08657    0.65524   1.00
H2       -0.06494   0.11594    0.61380   1.00
H2       0.05255    0.10098    0.61002   1.00
H2       -0.04385   0.07519    0.63737   1.00
H2       0.11958    0.18780    0.59544   1.00
H2       -0.11383   0.07485    0.72307   1.00
H2       0.12975    0.14007    0.57916   1.00
H2       -0.12149   0.04930    0.67907   1.00
H2       0.08261    0.15973    0.57305   1.00
H2       -0.07502   0.04901    0.70112   1.00
C4       0.48025    0.24751    0.74590   1.00
C4       0.52191    0.24597    0.74576   1.00
C3       0.45897    0.27672    0.72532   1.00
C3       0.54504    0.27090    0.72183   1.00
C3       0.45854    0.21904    0.76734   1.00
C3       0.54170    0.21859    0.77026   1.00
C2       0.39595    0.24953    0.74460   1.00
C2       0.60622    0.24420    0.74686   1.00
C3       0.41811    0.27764    0.72448   1.00
C3       0.58591    0.27023    0.72246   1.00
C3       0.41696    0.22087    0.76555   1.00
C3       0.58336    0.21900    0.77020   1.00
H1       0.47237    0.29864    0.71049   1.00
H1       0.53306    0.29021    0.70276   1.00
C5       0.47835    0.18991    0.78994   1.00
C5       0.51998    0.19164    0.79378   1.00
H1       0.40451    0.29937    0.70897   1.00
H1       0.60091    0.28907    0.70461   1.00
H1       0.40052    0.20098    0.78019   1.00
H1       0.59848    0.20015    0.78743   1.00
C6       0.45515    0.15752    0.80905   1.00
C6       0.54119    0.16573    0.82261   1.00
H2       0.43345    0.14675    0.78845   1.00
H2       0.56310    0.18297    0.83789   1.00
H2       0.47286    0.13165    0.81382   1.00
H2       0.52228    0.15680    0.84646   1.00
C6       0.43606    0.17000    0.84871   1.00
C6       0.55942    0.12846    0.80334   1.00
H2       0.42292    0.19890    0.84561   1.00
H2       0.57383    0.13652    0.77604   1.00
C6       0.40459    0.14218    0.86667   1.00
C6       0.58911    0.10422    0.82820   1.00
H2       0.45949    0.17367    0.87002   1.00
H2       0.53546    0.10923    0.79482   1.00
C6       0.36735    0.14026    0.84100   1.00
C6       0.62708    0.12750    0.83630   1.00
C6       0.42074    0.10038    0.87266   1.00
C6       0.57107    0.09097    0.86747   1.00
C6       0.39245    0.15841    0.90720   1.00
C6       0.60054    0.06711    0.80484   1.00
H2       0.35558    0.16940    0.83569   1.00
H2       0.64020    0.13783    0.80915   1.00
H2       0.37330    0.12685    0.81281   1.00
H2       0.62154    0.15280    0.85471   1.00
H2       0.34459    0.12299    0.85506   1.00
H2       0.64863    0.10946    0.85127   1.00
H2       0.39955    0.08198    0.88773   1.00
H2       0.59098    0.07179    0.88330   1.00
H2       0.42725    0.08657    0.84476   1.00
H2       0.56494    0.11594    0.88620   1.00
H2       0.44745    0.10098    0.88998   1.00
H2       0.54385    0.07519    0.86263   1.00
H2       0.38042    0.18780    0.90456   1.00
H2       0.61383    0.07485    0.77693   1.00
H2       0.37025    0.14007    0.92084   1.00
H2       0.62149    0.04930    0.82093   1.00
H2       0.41739    0.15973    0.92695   1.00
H2       0.57502    0.04901    0.79888   1.00
C4       0.25410    0.01975    0.74751   1.00
C4       0.25424    -0.02191   0.74597   1.00
C3       0.27468    0.04103    0.77672   1.00
C3       0.27817    -0.04504   0.77090   1.00
C3       0.23266    0.04146    0.71904   1.00
C3       0.22974    -0.04170   0.71859   1.00
C2       0.25540    0.10405    0.74953   1.00
C2       0.25314    -0.10622   0.74420   1.00
C3       0.27552    0.08189    0.77764   1.00
C3       0.27754    -0.08591   0.77023   1.00
C3       0.23445    0.08304    0.72087   1.00
C3       0.22980    -0.08336   0.71900   1.00
H1       0.28951    0.02763    0.79864   1.00
H1       0.29724    -0.03306   0.79021   1.00
C5       0.21006    0.02165    0.68991   1.00
C5       0.20622    -0.01998   0.69164   1.00
H1       0.29103    0.09549    0.79937   1.00
H1       0.29539    -0.10091   0.78907   1.00
H1       0.21981    0.09948    0.70098   1.00
H1       0.21257    -0.09848   0.70015   1.00
C6       0.19095    0.04485    0.65752   1.00
C6       0.17739    -0.04119   0.66573   1.00
H2       0.21155    0.06655    0.64675   1.00
H2       0.16211    -0.06310   0.68297   1.00
H2       0.18618    0.02714    0.63165   1.00
H2       0.15354    -0.02228   0.65680   1.00
C6       0.15129    0.06394    0.67000   1.00
C6       0.19666    -0.05942   0.62846   1.00
H2       0.15439    0.07708    0.69890   1.00
H2       0.22396    -0.07383   0.63652   1.00
C6       0.13333    0.09541    0.64218   1.00
C6       0.17180    -0.08911   0.60422   1.00
H2       0.12998    0.04051    0.67367   1.00
H2       0.20518    -0.03546   0.60923   1.00
C6       0.15900    0.13265    0.64026   1.00
C6       0.16370    -0.12708   0.62750   1.00
C6       0.12734    0.07926    0.60038   1.00
C6       0.13253    -0.07107   0.59097   1.00
C6       0.09280    0.10755    0.65841   1.00
C6       0.19516    -0.10054   0.56711   1.00
H2       0.16431    0.14442    0.66940   1.00
H2       0.19085    -0.14020   0.63783   1.00
H2       0.18719    0.12670    0.62685   1.00
H2       0.14529    -0.12154   0.65280   1.00
H2       0.14494    0.15541    0.62299   1.00
H2       0.14873    -0.14863   0.60946   1.00
H2       0.11227    0.10045    0.58198   1.00
H2       0.11670    -0.09098   0.57179   1.00
H2       0.15524    0.07275    0.58657   1.00
H2       0.11380    -0.06494   0.61594   1.00
H2       0.11002    0.05255    0.60098   1.00
H2       0.13737    -0.04385   0.57519   1.00
H2       0.09544    0.11958    0.68780   1.00
H2       0.22307    -0.11383   0.57485   1.00
H2       0.07916    0.12975    0.64007   1.00
H2       0.17907    -0.12149   0.54930   1.00
H2       0.07305    0.08261    0.65973   1.00
H2       0.20112    -0.07502   0.54901   1.00
C4       0.24751    0.25410    0.51975   1.00
C4       0.24597    0.25424    0.47809   1.00
C3       0.27672    0.27468    0.54103   1.00
C3       0.27090    0.27817    0.45496   1.00
C3       0.21904    0.23266    0.54146   1.00
C3       0.21859    0.22974    0.45830   1.00
C2       0.24953    0.25540    0.60405   1.00
C2       0.24420    0.25314    0.39378   1.00
C3       0.27764    0.27552    0.58189   1.00
C3       0.27023    0.27754    0.41409   1.00
C3       0.22087    0.23445    0.58304   1.00
C3       0.21900    0.22980    0.41664   1.00
H1       0.29864    0.28951    0.52763   1.00
H1       0.29021    0.29724    0.46694   1.00
C5       0.18991    0.21006    0.52165   1.00
C5       0.19164    0.20622    0.48002   1.00
H1       0.29937    0.29103    0.59549   1.00
H1       0.28907    0.29539    0.39909   1.00
H1       0.20098    0.21981    0.59948   1.00
H1       0.20015    0.21257    0.40152   1.00
C6       0.15752    0.19095    0.54485   1.00
C6       0.16573    0.17739    0.45881   1.00
H2       0.14675    0.21155    0.56655   1.00
H2       0.18297    0.16211    0.43690   1.00
H2       0.13165    0.18618    0.52714   1.00
H2       0.15680    0.15354    0.47772   1.00
C6       0.17000    0.15129    0.56394   1.00
C6       0.12846    0.19666    0.44058   1.00
H2       0.19890    0.15439    0.57708   1.00
H2       0.13652    0.22396    0.42617   1.00
C6       0.14218    0.13333    0.59541   1.00
C6       0.10422    0.17180    0.41089   1.00
H2       0.17367    0.12998    0.54051   1.00
H2       0.10923    0.20518    0.46454   1.00
C6       0.14026    0.15900    0.63265   1.00
C6       0.12750    0.16370    0.37292   1.00
C6       0.10038    0.12734    0.57926   1.00
C6       0.09097    0.13253    0.42893   1.00
C6       0.15841    0.09280    0.60755   1.00
C6       0.06711    0.19516    0.39946   1.00
H2       0.16940    0.16431    0.64442   1.00
H2       0.13783    0.19085    0.35980   1.00
H2       0.12685    0.18719    0.62670   1.00
H2       0.15280    0.14529    0.37846   1.00
H2       0.12299    0.14494    0.65541   1.00
H2       0.10946    0.14873    0.35137   1.00
H2       0.08198    0.11227    0.60045   1.00
H2       0.07179    0.11670    0.40902   1.00
H2       0.08657    0.15524    0.57275   1.00
H2       0.11594    0.11380    0.43506   1.00
H2       0.10098    0.11002    0.55255   1.00
H2       0.07519    0.13737    0.45615   1.00
H2       0.18780    0.09544    0.61958   1.00
H2       0.07485    0.22307    0.38617   1.00
H2       0.14007    0.07916    0.62975   1.00
H2       0.04930    0.17907    0.37851   1.00
H2       0.15973    0.07305    0.58261   1.00
H2       0.04901    0.20112    0.42498   1.00
C4       0.24751    0.74590    0.48025   1.00
C4       0.24597    0.74576    0.52191   1.00
C3       0.27672    0.72532    0.45897   1.00
C3       0.27090    0.72183    0.54504   1.00
C3       0.21904    0.76734    0.45854   1.00
C3       0.21859    0.77026    0.54170   1.00
C2       0.24953    0.74460    0.39595   1.00
C2       0.24420    0.74686    0.60622   1.00
C3       0.27764    0.72448    0.41811   1.00
C3       0.27023    0.72246    0.58591   1.00
C3       0.22087    0.76555    0.41696   1.00
C3       0.21900    0.77020    0.58336   1.00
H1       0.29864    0.71049    0.47237   1.00
H1       0.29021    0.70276    0.53306   1.00
C5       0.18991    0.78994    0.47835   1.00
C5       0.19164    0.79378    0.51998   1.00
H1       0.29937    0.70897    0.40451   1.00
H1       0.28907    0.70461    0.60091   1.00
H1       0.20098    0.78019    0.40052   1.00
H1       0.20015    0.78743    0.59848   1.00
C6       0.15752    0.80905    0.45515   1.00
C6       0.16573    0.82261    0.54119   1.00
H2       0.14675    0.78845    0.43345   1.00
H2       0.18297    0.83789    0.56310   1.00
H2       0.13165    0.81382    0.47286   1.00
H2       0.15680    0.84646    0.52228   1.00
C6       0.17000    0.84871    0.43606   1.00
C6       0.12846    0.80334    0.55942   1.00
H2       0.19890    0.84561    0.42292   1.00
H2       0.13652    0.77604    0.57383   1.00
C6       0.14218    0.86667    0.40459   1.00
C6       0.10422    0.82820    0.58911   1.00
H2       0.17367    0.87002    0.45949   1.00
H2       0.10923    0.79482    0.53546   1.00
C6       0.14026    0.84100    0.36735   1.00
C6       0.12750    0.83630    0.62708   1.00
C6       0.10038    0.87266    0.42074   1.00
C6       0.09097    0.86747    0.57107   1.00
C6       0.15841    0.90720    0.39245   1.00
C6       0.06711    0.80484    0.60054   1.00
H2       0.16940    0.83569    0.35558   1.00
H2       0.13783    0.80915    0.64020   1.00
H2       0.12685    0.81281    0.37330   1.00
H2       0.15280    0.85471    0.62154   1.00
H2       0.12299    0.85506    0.34459   1.00
H2       0.10946    0.85127    0.64863   1.00
H2       0.08198    0.88773    0.39955   1.00
H2       0.07179    0.88330    0.59098   1.00
H2       0.08657    0.84476    0.42725   1.00
H2       0.11594    0.88620    0.56494   1.00
H2       0.10098    0.88998    0.44745   1.00
H2       0.07519    0.86263    0.54385   1.00
H2       0.18780    0.90456    0.38042   1.00
H2       0.07485    0.77693    0.61383   1.00
H2       0.14007    0.92084    0.37025   1.00
H2       0.04930    0.82093    0.62149   1.00
H2       0.15973    0.92695    0.41739   1.00
H2       0.04901    0.79888    0.57502   1.00
C4       0.24590    0.98025    0.24751   1.00
C4       0.24576    1.02191    0.24597   1.00
C3       0.22532    0.95897    0.27672   1.00
C3       0.22183    1.04504    0.27090   1.00
C3       0.26734    0.95854    0.21904   1.00
C3       0.27026    1.04170    0.21859   1.00
C2       0.24460    0.89595    0.24953   1.00
C2       0.24686    1.10622    0.24420   1.00
C3       0.22448    0.91811    0.27764   1.00
C3       0.22246    1.08591    0.27023   1.00
C3       0.26555    0.91696    0.22087   1.00
C3       0.27020    1.08336    0.21900   1.00
H1       0.21049    0.97237    0.29864   1.00
H1       0.20276    1.03306    0.29021   1.00
C5       0.28994    0.97835    0.18991   1.00
C5       0.29378    1.01998    0.19164   1.00
H1       0.20897    0.90451    0.29937   1.00
H1       0.20461    1.10091    0.28907   1.00
H1       0.28019    0.90052    0.20098   1.00
H1       0.28743    1.09848    0.20015   1.00
C6       0.30905    0.95515    0.15752   1.00
C6       0.32261    1.04119    0.16573   1.00
H2       0.28845    0.93345    0.14675   1.00
H2       0.33789    1.06310    0.18297   1.00
H2       0.31382    0.97286    0.13165   1.00
H2       0.34646    1.02228    0.15680   1.00
C6       0.34871    0.93606    0.17000   1.00
C6       0.30334    1.05942    0.12846   1.00
H2       0.34561    0.92292    0.19890   1.00
H2       0.27604    1.07383    0.13652   1.00
C6       0.36667    0.90459    0.14218   1.00
C6       0.32820    1.08911    0.10422   1.00
H2       0.37002    0.95949    0.17367   1.00
H2       0.29482    1.03546    0.10923   1.00
C6       0.34100    0.86735    0.14026   1.00
C6       0.33630    1.12708    0.12750   1.00
C6       0.37266    0.92074    0.10038   1.00
C6       0.36747    1.07107    0.09097   1.00
C6       0.40720    0.89245    0.15841   1.00
C6       0.30484    1.10054    0.06711   1.00
H2       0.33569    0.85558    0.16940   1.00
H2       0.30915    1.14020    0.13783   1.00
H2       0.31281    0.87330    0.12685   1.00
H2       0.35471    1.12154    0.15280   1.00
H2       0.35506    0.84459    0.12299   1.00
H2       0.35127    1.14863    0.10946   1.00
H2       0.38773    0.89955    0.08198   1.00
H2       0.38330    1.09098    0.07179   1.00
H2       0.34476    0.92725    0.08657   1.00
H2       0.38620    1.06494    0.11594   1.00
H2       0.38998    0.94745    0.10098   1.00
H2       0.36263    1.04385    0.07519   1.00
H2       0.40456    0.88042    0.18780   1.00
H2       0.27693    1.11383    0.07485   1.00
H2       0.42084    0.87025    0.14007   1.00
H2       0.32093    1.12149    0.04930   1.00
H2       0.42695    0.91739    0.15973   1.00
H2       0.29888    1.07502    0.04901   1.00
C4       0.01975    0.74751    0.25410   1.00
C4       -0.02191   0.74597    0.25424   1.00
C3       0.04103    0.77672    0.27468   1.00
C3       -0.04504   0.77090    0.27817   1.00
C3       0.04146    0.71904    0.23266   1.00
C3       -0.04170   0.71859    0.22974   1.00
C2       0.10405    0.74953    0.25540   1.00
C2       -0.10622   0.74420    0.25314   1.00
C3       0.08189    0.77764    0.27552   1.00
C3       -0.08591   0.77023    0.27754   1.00
C3       0.08304    0.72087    0.23445   1.00
C3       -0.08336   0.71900    0.22980   1.00
H1       0.02763    0.79864    0.28951   1.00
H1       -0.03306   0.79021    0.29724   1.00
C5       0.02165    0.68991    0.21006   1.00
C5       -0.01998   0.69164    0.20622   1.00
H1       0.09549    0.79937    0.29103   1.00
H1       -0.10091   0.78907    0.29539   1.00
H1       0.09948    0.70098    0.21981   1.00
H1       -0.09848   0.70015    0.21257   1.00
C6       0.04485    0.65752    0.19095   1.00
C6       -0.04119   0.66573    0.17739   1.00
H2       0.06655    0.64675    0.21155   1.00
H2       -0.06310   0.68297    0.16211   1.00
H2       0.02714    0.63165    0.18618   1.00
H2       -0.02228   0.65680    0.15354   1.00
C6       0.06394    0.67000    0.15129   1.00
C6       -0.05942   0.62846    0.19666   1.00
H2       0.07708    0.69890    0.15439   1.00
H2       -0.07383   0.63652    0.22396   1.00
C6       0.09541    0.64218    0.13333   1.00
C6       -0.08911   0.60422    0.17180   1.00
H2       0.04051    0.67367    0.12998   1.00
H2       -0.03546   0.60923    0.20518   1.00
C6       0.13265    0.64026    0.15900   1.00
C6       -0.12708   0.62750    0.16370   1.00
C6       0.07926    0.60038    0.12734   1.00
C6       -0.07107   0.59097    0.13253   1.00
C6       0.10755    0.65841    0.09280   1.00
C6       -0.10054   0.56711    0.19516   1.00
H2       0.14442    0.66940    0.16431   1.00
H2       -0.14020   0.63783    0.19085   1.00
H2       0.12670    0.62685    0.18719   1.00
H2       -0.12154   0.65280    0.14529   1.00
H2       0.15541    0.62299    0.14494   1.00
H2       -0.14863   0.60946    0.14873   1.00
H2       0.10045    0.58198    0.11227   1.00
H2       -0.09098   0.57179    0.11670   1.00
H2       0.07275    0.58657    0.15524   1.00
H2       -0.06494   0.61594    0.11380   1.00
H2       0.05255    0.60098    0.11002   1.00
H2       -0.04385   0.57519    0.13737   1.00
H2       0.11958    0.68780    0.09544   1.00
H2       -0.11383   0.57485    0.22307   1.00
H2       0.12975    0.64007    0.07916   1.00
H2       -0.12149   0.54930    0.17907   1.00
H2       0.08261    0.65973    0.07305   1.00
H2       -0.07502   0.54901    0.20112   1.00
C4       0.48025    0.74751    0.24590   1.00
C4       0.52191    0.74597    0.24576   1.00
C3       0.45897    0.77672    0.22532   1.00
C3       0.54504    0.77090    0.22183   1.00
C3       0.45854    0.71904    0.26734   1.00
C3       0.54170    0.71859    0.27026   1.00
C2       0.39595    0.74953    0.24460   1.00
C2       0.60622    0.74420    0.24686   1.00
C3       0.41811    0.77764    0.22448   1.00
C3       0.58591    0.77023    0.22246   1.00
C3       0.41696    0.72087    0.26555   1.00
C3       0.58336    0.71900    0.27020   1.00
H1       0.47237    0.79864    0.21049   1.00
H1       0.53306    0.79021    0.20276   1.00
C5       0.47835    0.68991    0.28994   1.00
C5       0.51998    0.69164    0.29378   1.00
H1       0.40451    0.79937    0.20897   1.00
H1       0.60091    0.78907    0.20461   1.00
H1       0.40052    0.70098    0.28019   1.00
H1       0.59848    0.70015    0.28743   1.00
C6       0.45515    0.65752    0.30905   1.00
C6       0.54119    0.66573    0.32261   1.00
H2       0.43345    0.64675    0.28845   1.00
H2       0.56310    0.68297    0.33789   1.00
H2       0.47286    0.63165    0.31382   1.00
H2       0.52228    0.65680    0.34646   1.00
C6       0.43606    0.67000    0.34871   1.00
C6       0.55942    0.62846    0.30334   1.00
H2       0.42292    0.69890    0.34561   1.00
H2       0.57383    0.63652    0.27604   1.00
C6       0.40459    0.64218    0.36667   1.00
C6       0.58911    0.60422    0.32820   1.00
H2       0.45949    0.67367    0.37002   1.00
H2       0.53546    0.60923    0.29482   1.00
C6       0.36735    0.64026    0.34100   1.00
C6       0.62708    0.62750    0.33630   1.00
C6       0.42074    0.60038    0.37266   1.00
C6       0.57107    0.59097    0.36747   1.00
C6       0.39245    0.65841    0.40720   1.00
C6       0.60054    0.56711    0.30484   1.00
H2       0.35558    0.66940    0.33569   1.00
H2       0.64020    0.63783    0.30915   1.00
H2       0.37330    0.62685    0.31281   1.00
H2       0.62154    0.65280    0.35471   1.00
H2       0.34459    0.62299    0.35506   1.00
H2       0.64863    0.60946    0.35127   1.00
H2       0.39955    0.58198    0.38773   1.00
H2       0.59098    0.57179    0.38330   1.00
H2       0.42725    0.58657    0.34476   1.00
H2       0.56494    0.61594    0.38620   1.00
H2       0.44745    0.60098    0.38998   1.00
H2       0.54385    0.57519    0.36263   1.00
H2       0.38042    0.68780    0.40456   1.00
H2       0.61383    0.57485    0.27693   1.00
H2       0.37025    0.64007    0.42084   1.00
H2       0.62149    0.54930    0.32093   1.00
H2       0.41739    0.65973    0.42695   1.00
H2       0.57502    0.54901    0.29888   1.00
C4       0.25410    0.51975    0.24751   1.00
C4       0.25424    0.47809    0.24597   1.00
C3       0.27468    0.54103    0.27672   1.00
C3       0.27817    0.45496    0.27090   1.00
C3       0.23266    0.54146    0.21904   1.00
C3       0.22974    0.45830    0.21859   1.00
C2       0.25540    0.60405    0.24953   1.00
C2       0.25314    0.39378    0.24420   1.00
C3       0.27552    0.58189    0.27764   1.00
C3       0.27754    0.41409    0.27023   1.00
C3       0.23445    0.58304    0.22087   1.00
C3       0.22980    0.41664    0.21900   1.00
H1       0.28951    0.52763    0.29864   1.00
H1       0.29724    0.46694    0.29021   1.00
C5       0.21006    0.52165    0.18991   1.00
C5       0.20622    0.48002    0.19164   1.00
H1       0.29103    0.59549    0.29937   1.00
H1       0.29539    0.39909    0.28907   1.00
H1       0.21981    0.59948    0.20098   1.00
H1       0.21257    0.40152    0.20015   1.00
C6       0.19095    0.54485    0.15752   1.00
C6       0.17739    0.45881    0.16573   1.00
H2       0.21155    0.56655    0.14675   1.00
H2       0.16211    0.43690    0.18297   1.00
H2       0.18618    0.52714    0.13165   1.00
H2       0.15354    0.47772    0.15680   1.00
C6       0.15129    0.56394    0.17000   1.00
C6       0.19666    0.44058    0.12846   1.00
H2       0.15439    0.57708    0.19890   1.00
H2       0.22396    0.42617    0.13652   1.00
C6       0.13333    0.59541    0.14218   1.00
C6       0.17180    0.41089    0.10422   1.00
H2       0.12998    0.54051    0.17367   1.00
H2       0.20518    0.46454    0.10923   1.00
C6       0.15900    0.63265    0.14026   1.00
C6       0.16370    0.37292    0.12750   1.00
C6       0.12734    0.57926    0.10038   1.00
C6       0.13253    0.42893    0.09097   1.00
C6       0.09280    0.60755    0.15841   1.00
C6       0.19516    0.39946    0.06711   1.00
H2       0.16431    0.64442    0.16940   1.00
H2       0.19085    0.35980    0.13783   1.00
H2       0.18719    0.62670    0.12685   1.00
H2       0.14529    0.37846    0.15280   1.00
H2       0.14494    0.65541    0.12299   1.00
H2       0.14873    0.35137    0.10946   1.00
H2       0.11227    0.60045    0.08198   1.00
H2       0.11670    0.40902    0.07179   1.00
H2       0.15524    0.57275    0.08657   1.00
H2       0.11380    0.43506    0.11594   1.00
H2       0.11002    0.55255    0.10098   1.00
H2       0.13737    0.45615    0.07519   1.00
H2       0.09544    0.61958    0.18780   1.00
H2       0.22307    0.38617    0.07485   1.00
H2       0.07916    0.62975    0.14007   1.00
H2       0.17907    0.37851    0.04930   1.00
H2       0.07305    0.58261    0.15973   1.00
H2       0.20112    0.42498    0.04901   1.00
C4       0.24751    0.75410    0.01975   1.00
C4       0.24597    0.75424    -0.02191   1.00
C3       0.27672    0.77468    0.04103   1.00
C3       0.27090    0.77817    -0.04504   1.00
C3       0.21904    0.73266    0.04146   1.00
C3       0.21859    0.72974    -0.04170   1.00
C2       0.24953    0.75540    0.10405   1.00
C2       0.24420    0.75314    -0.10622   1.00
C3       0.27764    0.77552    0.08189   1.00
C3       0.27023    0.77754    -0.08591   1.00
C3       0.22087    0.73445    0.08304   1.00
C3       0.21900    0.72980    -0.08336   1.00
H1       0.29864    0.78951    0.02763   1.00
H1       0.29021    0.79724    -0.03306   1.00
C5       0.18991    0.71006    0.02165   1.00
C5       0.19164    0.70622    -0.01998   1.00
H1       0.29937    0.79103    0.09549   1.00
H1       0.28907    0.79539    -0.10091   1.00
H1       0.20098    0.71981    0.09948   1.00
H1       0.20015    0.71257    -0.09848   1.00
C6       0.15752    0.69095    0.04485   1.00
C6       0.16573    0.67739    -0.04119   1.00
H2       0.14675    0.71155    0.06655   1.00
H2       0.18297    0.66211    -0.06310   1.00
H2       0.13165    0.68618    0.02714   1.00
H2       0.15680    0.65354    -0.02228   1.00
C6       0.17000    0.65129    0.06394   1.00
C6       0.12846    0.69666    -0.05942   1.00
H2       0.19890    0.65439    0.07708   1.00
H2       0.13652    0.72396    -0.07383   1.00
C6       0.14218    0.63333    0.09541   1.00
C6       0.10422    0.67180    -0.08911   1.00
H2       0.17367    0.62998    0.04051   1.00
H2       0.10923    0.70518    -0.03546   1.00
C6       0.14026    0.65900    0.13265   1.00
C6       0.12750    0.66370    -0.12708   1.00
C6       0.10038    0.62734    0.07926   1.00
C6       0.09097    0.63253    -0.07107   1.00
C6       0.15841    0.59280    0.10755   1.00
C6       0.06711    0.69516    -0.10054   1.00
H2       0.16940    0.66431    0.14442   1.00
H2       0.13783    0.69085    -0.14020   1.00
H2       0.12685    0.68719    0.12670   1.00
H2       0.15280    0.64529    -0.12154   1.00
H2       0.12299    0.64494    0.15541   1.00
H2       0.10946    0.64873    -0.14863   1.00
H2       0.08198    0.61227    0.10045   1.00
H2       0.07179    0.61670    -0.09098   1.00
H2       0.08657    0.65524    0.07275   1.00
H2       0.11594    0.61380    -0.06494   1.00
H2       0.10098    0.61002    0.05255   1.00
H2       0.07519    0.63737    -0.04385   1.00
H2       0.18780    0.59544    0.11958   1.00
H2       0.07485    0.72307    -0.11383   1.00
H2       0.14007    0.57916    0.12975   1.00
H2       0.04930    0.67907    -0.12149   1.00
H2       0.15973    0.57305    0.08261   1.00
H2       0.04901    0.70112    -0.07502   1.00
C4       0.74751    0.24590    0.48025   1.00
C4       0.74597    0.24576    0.52191   1.00
C3       0.77672    0.22532    0.45897   1.00
C3       0.77090    0.22183    0.54504   1.00
C3       0.71904    0.26734    0.45854   1.00
C3       0.71859    0.27026    0.54170   1.00
C2       0.74953    0.24460    0.39595   1.00
C2       0.74420    0.24686    0.60622   1.00
C3       0.77764    0.22448    0.41811   1.00
C3       0.77023    0.22246    0.58591   1.00
C3       0.72087    0.26555    0.41696   1.00
C3       0.71900    0.27020    0.58336   1.00
H1       0.79864    0.21049    0.47237   1.00
H1       0.79021    0.20276    0.53306   1.00
C5       0.68991    0.28994    0.47835   1.00
C5       0.69164    0.29378    0.51998   1.00
H1       0.79937    0.20897    0.40451   1.00
H1       0.78907    0.20461    0.60091   1.00
H1       0.70098    0.28019    0.40052   1.00
H1       0.70015    0.28743    0.59848   1.00
C6       0.65752    0.30905    0.45515   1.00
C6       0.66573    0.32261    0.54119   1.00
H2       0.64675    0.28845    0.43345   1.00
H2       0.68297    0.33789    0.56310   1.00
H2       0.63165    0.31382    0.47286   1.00
H2       0.65680    0.34646    0.52228   1.00
C6       0.67000    0.34871    0.43606   1.00
C6       0.62846    0.30334    0.55942   1.00
H2       0.69890    0.34561    0.42292   1.00
H2       0.63652    0.27604    0.57383   1.00
C6       0.64218    0.36667    0.40459   1.00
C6       0.60422    0.32820    0.58911   1.00
H2       0.67367    0.37002    0.45949   1.00
H2       0.60923    0.29482    0.53546   1.00
C6       0.64026    0.34100    0.36735   1.00
C6       0.62750    0.33630    0.62708   1.00
C6       0.60038    0.37266    0.42074   1.00
C6       0.59097    0.36747    0.57107   1.00
C6       0.65841    0.40720    0.39245   1.00
C6       0.56711    0.30484    0.60054   1.00
H2       0.66940    0.33569    0.35558   1.00
H2       0.63783    0.30915    0.64020   1.00
H2       0.62685    0.31281    0.37330   1.00
H2       0.65280    0.35471    0.62154   1.00
H2       0.62299    0.35506    0.34459   1.00
H2       0.60946    0.35127    0.64863   1.00
H2       0.58198    0.38773    0.39955   1.00
H2       0.57179    0.38330    0.59098   1.00
H2       0.58657    0.34476    0.42725   1.00
H2       0.61594    0.38620    0.56494   1.00
H2       0.60098    0.38998    0.44745   1.00
H2       0.57519    0.36263    0.54385   1.00
H2       0.68780    0.40456    0.38042   1.00
H2       0.57485    0.27693    0.61383   1.00
H2       0.64007    0.42084    0.37025   1.00
H2       0.54930    0.32093    0.62149   1.00
H2       0.65973    0.42695    0.41739   1.00
H2       0.54901    0.29888    0.57502   1.00
C4       0.74590    0.48025    0.24751   1.00
C4       0.74576    0.52191    0.24597   1.00
C3       0.72532    0.45897    0.27672   1.00
C3       0.72183    0.54504    0.27090   1.00
C3       0.76734    0.45854    0.21904   1.00
C3       0.77026    0.54170    0.21859   1.00
C2       0.74460    0.39595    0.24953   1.00
C2       0.74686    0.60622    0.24420   1.00
C3       0.72448    0.41811    0.27764   1.00
C3       0.72246    0.58591    0.27023   1.00
C3       0.76555    0.41696    0.22087   1.00
C3       0.77020    0.58336    0.21900   1.00
H1       0.71049    0.47237    0.29864   1.00
H1       0.70276    0.53306    0.29021   1.00
C5       0.78994    0.47835    0.18991   1.00
C5       0.79378    0.51998    0.19164   1.00
H1       0.70897    0.40451    0.29937   1.00
H1       0.70461    0.60091    0.28907   1.00
H1       0.78019    0.40052    0.20098   1.00
H1       0.78743    0.59848    0.20015   1.00
C6       0.80905    0.45515    0.15752   1.00
C6       0.82261    0.54119    0.16573   1.00
H2       0.78845    0.43345    0.14675   1.00
H2       0.83789    0.56310    0.18297   1.00
H2       0.81382    0.47286    0.13165   1.00
H2       0.84646    0.52228    0.15680   1.00
C6       0.84871    0.43606    0.17000   1.00
C6       0.80334    0.55942    0.12846   1.00
H2       0.84561    0.42292    0.19890   1.00
H2       0.77604    0.57383    0.13652   1.00
C6       0.86667    0.40459    0.14218   1.00
C6       0.82820    0.58911    0.10422   1.00
H2       0.87002    0.45949    0.17367   1.00
H2       0.79482    0.53546    0.10923   1.00
C6       0.84100    0.36735    0.14026   1.00
C6       0.83630    0.62708    0.12750   1.00
C6       0.87266    0.42074    0.10038   1.00
C6       0.86747    0.57107    0.09097   1.00
C6       0.90720    0.39245    0.15841   1.00
C6       0.80484    0.60054    0.06711   1.00
H2       0.83569    0.35558    0.16940   1.00
H2       0.80915    0.64020    0.13783   1.00
H2       0.81281    0.37330    0.12685   1.00
H2       0.85471    0.62154    0.15280   1.00
H2       0.85506    0.34459    0.12299   1.00
H2       0.85127    0.64863    0.10946   1.00
H2       0.88773    0.39955    0.08198   1.00
H2       0.88330    0.59098    0.07179   1.00
H2       0.84476    0.42725    0.08657   1.00
H2       0.88620    0.56494    0.11594   1.00
H2       0.88998    0.44745    0.10098   1.00
H2       0.86263    0.54385    0.07519   1.00
H2       0.90456    0.38042    0.18780   1.00
H2       0.77693    0.61383    0.07485   1.00
H2       0.92084    0.37025    0.14007   1.00
H2       0.82093    0.62149    0.04930   1.00
H2       0.92695    0.41739    0.15973   1.00
H2       0.79888    0.57502    0.04901   1.00
C4       0.51975    0.24751    0.25410   1.00
C4       0.47809    0.24597    0.25424   1.00
C3       0.54103    0.27672    0.27468   1.00
C3       0.45496    0.27090    0.27817   1.00
C3       0.54146    0.21904    0.23266   1.00
C3       0.45830    0.21859    0.22974   1.00
C2       0.60405    0.24953    0.25540   1.00
C2       0.39378    0.24420    0.25314   1.00
C3       0.58189    0.27764    0.27552   1.00
C3       0.41409    0.27023    0.27754   1.00
C3       0.58304    0.22087    0.23445   1.00
C3       0.41664    0.21900    0.22980   1.00
H1       0.52763    0.29864    0.28951   1.00
H1       0.46694    0.29021    0.29724   1.00
C5       0.52165    0.18991    0.21006   1.00
C5       0.48002    0.19164    0.20622   1.00
H1       0.59549    0.29937    0.29103   1.00
H1       0.39909    0.28907    0.29539   1.00
H1       0.59948    0.20098    0.21981   1.00
H1       0.40152    0.20015    0.21257   1.00
C6       0.54485    0.15752    0.19095   1.00
C6       0.45881    0.16573    0.17739   1.00
H2       0.56655    0.14675    0.21155   1.00
H2       0.43690    0.18297    0.16211   1.00
H2       0.52714    0.13165    0.18618   1.00
H2       0.47772    0.15680    0.15354   1.00
C6       0.56394    0.17000    0.15129   1.00
C6       0.44058    0.12846    0.19666   1.00
H2       0.57708    0.19890    0.15439   1.00
H2       0.42617    0.13652    0.22396   1.00
C6       0.59541    0.14218    0.13333   1.00
C6       0.41089    0.10422    0.17180   1.00
H2       0.54051    0.17367    0.12998   1.00
H2       0.46454    0.10923    0.20518   1.00
C6       0.63265    0.14026    0.15900   1.00
C6       0.37292    0.12750    0.16370   1.00
C6       0.57926    0.10038    0.12734   1.00
C6       0.42893    0.09097    0.13253   1.00
C6       0.60755    0.15841    0.09280   1.00
C6       0.39946    0.06711    0.19516   1.00
H2       0.64442    0.16940    0.16431   1.00
H2       0.35980    0.13783    0.19085   1.00
H2       0.62670    0.12685    0.18719   1.00
H2       0.37846    0.15280    0.14529   1.00
H2       0.65541    0.12299    0.14494   1.00
H2       0.35137    0.10946    0.14873   1.00
H2       0.60045    0.08198    0.11227   1.00
H2       0.40902    0.07179    0.11670   1.00
H2       0.57275    0.08657    0.15524   1.00
H2       0.43506    0.11594    0.11380   1.00
H2       0.55255    0.10098    0.11002   1.00
H2       0.45615    0.07519    0.13737   1.00
H2       0.61958    0.18780    0.09544   1.00
H2       0.38617    0.07485    0.22307   1.00
H2       0.62975    0.14007    0.07916   1.00
H2       0.37851    0.04930    0.17907   1.00
H2       0.58261    0.15973    0.07305   1.00
H2       0.42498    0.04901    0.20112   1.00
C4       0.98025    0.24751    0.24590   1.00
C4       1.02191    0.24597    0.24576   1.00
C3       0.95897    0.27672    0.22532   1.00
C3       1.04504    0.27090    0.22183   1.00
C3       0.95854    0.21904    0.26734   1.00
C3       1.04170    0.21859    0.27026   1.00
C2       0.89595    0.24953    0.24460   1.00
C2       1.10622    0.24420    0.24686   1.00
C3       0.91811    0.27764    0.22448   1.00
C3       1.08591    0.27023    0.22246   1.00
C3       0.91696    0.22087    0.26555   1.00
C3       1.08336    0.21900    0.27020   1.00
H1       0.97237    0.29864    0.21049   1.00
H1       1.03306    0.29021    0.20276   1.00
C5       0.97835    0.18991    0.28994   1.00
C5       1.01998    0.19164    0.29378   1.00
H1       0.90451    0.29937    0.20897   1.00
H1       1.10091    0.28907    0.20461   1.00
H1       0.90052    0.20098    0.28019   1.00
H1       1.09848    0.20015    0.28743   1.00
C6       0.95515    0.15752    0.30905   1.00
C6       1.04119    0.16573    0.32261   1.00
H2       0.93345    0.14675    0.28845   1.00
H2       1.06310    0.18297    0.33789   1.00
H2       0.97286    0.13165    0.31382   1.00
H2       1.02228    0.15680    0.34646   1.00
C6       0.93606    0.17000    0.34871   1.00
C6       1.05942    0.12846    0.30334   1.00
H2       0.92292    0.19890    0.34561   1.00
H2       1.07383    0.13652    0.27604   1.00
C6       0.90459    0.14218    0.36667   1.00
C6       1.08911    0.10422    0.32820   1.00
H2       0.95949    0.17367    0.37002   1.00
H2       1.03546    0.10923    0.29482   1.00
C6       0.86735    0.14026    0.34100   1.00
C6       1.12708    0.12750    0.33630   1.00
C6       0.92074    0.10038    0.37266   1.00
C6       1.07107    0.09097    0.36747   1.00
C6       0.89245    0.15841    0.40720   1.00
C6       1.10054    0.06711    0.30484   1.00
H2       0.85558    0.16940    0.33569   1.00
H2       1.14020    0.13783    0.30915   1.00
H2       0.87330    0.12685    0.31281   1.00
H2       1.12154    0.15280    0.35471   1.00
H2       0.84459    0.12299    0.35506   1.00
H2       1.14863    0.10946    0.35127   1.00
H2       0.89955    0.08198    0.38773   1.00
H2       1.09098    0.07179    0.38330   1.00
H2       0.92725    0.08657    0.34476   1.00
H2       1.06494    0.11594    0.38620   1.00
H2       0.94745    0.10098    0.38998   1.00
H2       1.04385    0.07519    0.36263   1.00
H2       0.88042    0.18780    0.40456   1.00
H2       1.11383    0.07485    0.27693   1.00
H2       0.87025    0.14007    0.42084   1.00
H2       1.12149    0.04930    0.32093   1.00
H2       0.91739    0.15973    0.42695   1.00
H2       1.07502    0.04901    0.29888   1.00
C4       0.75410    0.01975    0.24751   1.00
C4       0.75424    -0.02191   0.24597   1.00
C3       0.77468    0.04103    0.27672   1.00
C3       0.77817    -0.04504   0.27090   1.00
C3       0.73266    0.04146    0.21904   1.00
C3       0.72974    -0.04170   0.21859   1.00
C2       0.75540    0.10405    0.24953   1.00
C2       0.75314    -0.10622   0.24420   1.00
C3       0.77552    0.08189    0.27764   1.00
C3       0.77754    -0.08591   0.27023   1.00
C3       0.73445    0.08304    0.22087   1.00
C3       0.72980    -0.08336   0.21900   1.00
H1       0.78951    0.02763    0.29864   1.00
H1       0.79724    -0.03306   0.29021   1.00
C5       0.71006    0.02165    0.18991   1.00
C5       0.70622    -0.01998   0.19164   1.00
H1       0.79103    0.09549    0.29937   1.00
H1       0.79539    -0.10091   0.28907   1.00
H1       0.71981    0.09948    0.20098   1.00
H1       0.71257    -0.09848   0.20015   1.00
C6       0.69095    0.04485    0.15752   1.00
C6       0.67739    -0.04119   0.16573   1.00
H2       0.71155    0.06655    0.14675   1.00
H2       0.66211    -0.06310   0.18297   1.00
H2       0.68618    0.02714    0.13165   1.00
H2       0.65354    -0.02228   0.15680   1.00
C6       0.65129    0.06394    0.17000   1.00
C6       0.69666    -0.05942   0.12846   1.00
H2       0.65439    0.07708    0.19890   1.00
H2       0.72396    -0.07383   0.13652   1.00
C6       0.63333    0.09541    0.14218   1.00
C6       0.67180    -0.08911   0.10422   1.00
H2       0.62998    0.04051    0.17367   1.00
H2       0.70518    -0.03546   0.10923   1.00
C6       0.65900    0.13265    0.14026   1.00
C6       0.66370    -0.12708   0.12750   1.00
C6       0.62734    0.07926    0.10038   1.00
C6       0.63253    -0.07107   0.09097   1.00
C6       0.59280    0.10755    0.15841   1.00
C6       0.69516    -0.10054   0.06711   1.00
H2       0.66431    0.14442    0.16940   1.00
H2       0.69085    -0.14020   0.13783   1.00
H2       0.68719    0.12670    0.12685   1.00
H2       0.64529    -0.12154   0.15280   1.00
H2       0.64494    0.15541    0.12299   1.00
H2       0.64873    -0.14863   0.10946   1.00
H2       0.61227    0.10045    0.08198   1.00
H2       0.61670    -0.09098   0.07179   1.00
H2       0.65524    0.07275    0.08657   1.00
H2       0.61380    -0.06494   0.11594   1.00
H2       0.61002    0.05255    0.10098   1.00
H2       0.63737    -0.04385   0.07519   1.00
H2       0.59544    0.11958    0.18780   1.00
H2       0.72307    -0.11383   0.07485   1.00
H2       0.57916    0.12975    0.14007   1.00
H2       0.67907    -0.12149   0.04930   1.00
H2       0.57305    0.08261    0.15973   1.00
H2       0.70112    -0.07502   0.04901   1.00
C4       0.74751    0.25410    0.01975   1.00
C4       0.74597    0.25424    -0.02191   1.00
C3       0.77672    0.27468    0.04103   1.00
C3       0.77090    0.27817    -0.04504   1.00
C3       0.71904    0.23266    0.04146   1.00
C3       0.71859    0.22974    -0.04170   1.00
C2       0.74953    0.25540    0.10405   1.00
C2       0.74420    0.25314    -0.10622   1.00
C3       0.77764    0.27552    0.08189   1.00
C3       0.77023    0.27754    -0.08591   1.00
C3       0.72087    0.23445    0.08304   1.00
C3       0.71900    0.22980    -0.08336   1.00
H1       0.79864    0.28951    0.02763   1.00
H1       0.79021    0.29724    -0.03306   1.00
C5       0.68991    0.21006    0.02165   1.00
C5       0.69164    0.20622    -0.01998   1.00
H1       0.79937    0.29103    0.09549   1.00
H1       0.78907    0.29539    -0.10091   1.00
H1       0.70098    0.21981    0.09948   1.00
H1       0.70015    0.21257    -0.09848   1.00
C6       0.65752    0.19095    0.04485   1.00
C6       0.66573    0.17739    -0.04119   1.00
H2       0.64675    0.21155    0.06655   1.00
H2       0.68297    0.16211    -0.06310   1.00
H2       0.63165    0.18618    0.02714   1.00
H2       0.65680    0.15354    -0.02228   1.00
C6       0.67000    0.15129    0.06394   1.00
C6       0.62846    0.19666    -0.05942   1.00
H2       0.69890    0.15439    0.07708   1.00
H2       0.63652    0.22396    -0.07383   1.00
C6       0.64218    0.13333    0.09541   1.00
C6       0.60422    0.17180    -0.08911   1.00
H2       0.67367    0.12998    0.04051   1.00
H2       0.60923    0.20518    -0.03546   1.00
C6       0.64026    0.15900    0.13265   1.00
C6       0.62750    0.16370    -0.12708   1.00
C6       0.60038    0.12734    0.07926   1.00
C6       0.59097    0.13253    -0.07107   1.00
C6       0.65841    0.09280    0.10755   1.00
C6       0.56711    0.19516    -0.10054   1.00
H2       0.66940    0.16431    0.14442   1.00
H2       0.63783    0.19085    -0.14020   1.00
H2       0.62685    0.18719    0.12670   1.00
H2       0.65280    0.14529    -0.12154   1.00
H2       0.62299    0.14494    0.15541   1.00
H2       0.60946    0.14873    -0.14863   1.00
H2       0.58198    0.11227    0.10045   1.00
H2       0.57179    0.11670    -0.09098   1.00
H2       0.58657    0.15524    0.07275   1.00
H2       0.61594    0.11380    -0.06494   1.00
H2       0.60098    0.11002    0.05255   1.00
H2       0.57519    0.13737    -0.04385   1.00
H2       0.68780    0.09544    0.11958   1.00
H2       0.57485    0.22307    -0.11383   1.00
H2       0.64007    0.07916    0.12975   1.00
H2       0.54930    0.17907    -0.12149   1.00
H2       0.65973    0.07305    0.08261   1.00
H2       0.54901    0.20112    -0.07502   1.00
