data_IRMOF10_SG202_Ligand5_label_i.

_audit_creation_method             'generated by an auxiliary program of Tobunporous'

_symmetry_space_group_name_H-M     'P 1'
_symmetry_Int_Tables_number        1
_symmetry_cell_setting             triclinic

_cell_length_a                    34.2800
_cell_length_b                    34.2800
_cell_length_c                    34.2800
_cell_angle_alpha                 90.0000
_cell_angle_beta                  90.0000
_cell_angle_gamma                 90.0000

loop_
_atom_site_label
_atom_site_fract_x
_atom_site_fract_y
_atom_site_fract_z
_atom_site_occupancy
O1       0.75000    0.75000    0.75000   1.00
Zn1      0.71720    0.78280    0.78280   1.00
Zn1      0.78280    0.71720    0.78280   1.00
Zn1      0.78280    0.78280    0.71720   1.00
Zn1      0.71720    0.71720    0.71720   1.00
O2       0.72650    0.77350    0.83820   1.00
O2       0.72650    0.83820    0.77350   1.00
O2       0.66180    0.77350    0.77350   1.00
O2       0.77350    0.72650    0.83820   1.00
O2       0.83820    0.72650    0.77350   1.00
O2       0.77350    0.66180    0.77350   1.00
O2       0.77350    0.83820    0.72650   1.00
O2       0.83820    0.77350    0.72650   1.00
O2       0.77350    0.77350    0.66180   1.00
O2       0.66180    0.72650    0.72650   1.00
O2       0.72650    0.66180    0.72650   1.00
O2       0.72650    0.72650    0.66180   1.00
C1       0.75000    0.75000    0.85520   1.00
C1       0.75000    0.85520    0.75000   1.00
C1       0.64480    0.75000    0.75000   1.00
C1       0.85520    0.75000    0.75000   1.00
C1       0.75000    0.64480    0.75000   1.00
C1       0.75000    0.75000    0.64480   1.00
O1       0.25000    0.25000    0.75000   1.00
Zn1      0.21720    0.28280    0.78280   1.00
Zn1      0.28280    0.21720    0.78280   1.00
Zn1      0.28280    0.28280    0.71720   1.00
Zn1      0.21720    0.21720    0.71720   1.00
O2       0.22650    0.27350    0.83820   1.00
O2       0.22650    0.33820    0.77350   1.00
O2       0.16180    0.27350    0.77350   1.00
O2       0.27350    0.22650    0.83820   1.00
O2       0.33820    0.22650    0.77350   1.00
O2       0.27350    0.16180    0.77350   1.00
O2       0.27350    0.33820    0.72650   1.00
O2       0.33820    0.27350    0.72650   1.00
O2       0.27350    0.27350    0.66180   1.00
O2       0.16180    0.22650    0.72650   1.00
O2       0.22650    0.16180    0.72650   1.00
O2       0.22650    0.22650    0.66180   1.00
C1       0.25000    0.25000    0.85520   1.00
C1       0.25000    0.35520    0.75000   1.00
C1       0.14480    0.25000    0.75000   1.00
C1       0.35520    0.25000    0.75000   1.00
C1       0.25000    0.14480    0.75000   1.00
C1       0.25000    0.25000    0.64480   1.00
O1       0.25000    0.75000    0.25000   1.00
Zn1      0.21720    0.78280    0.28280   1.00
Zn1      0.28280    0.71720    0.28280   1.00
Zn1      0.28280    0.78280    0.21720   1.00
Zn1      0.21720    0.71720    0.21720   1.00
O2       0.22650    0.77350    0.33820   1.00
O2       0.22650    0.83820    0.27350   1.00
O2       0.16180    0.77350    0.27350   1.00
O2       0.27350    0.72650    0.33820   1.00
O2       0.33820    0.72650    0.27350   1.00
O2       0.27350    0.66180    0.27350   1.00
O2       0.27350    0.83820    0.22650   1.00
O2       0.33820    0.77350    0.22650   1.00
O2       0.27350    0.77350    0.16180   1.00
O2       0.16180    0.72650    0.22650   1.00
O2       0.22650    0.66180    0.22650   1.00
O2       0.22650    0.72650    0.16180   1.00
C1       0.25000    0.75000    0.35520   1.00
C1       0.25000    0.85520    0.25000   1.00
C1       0.14480    0.75000    0.25000   1.00
C1       0.35520    0.75000    0.25000   1.00
C1       0.25000    0.64480    0.25000   1.00
C1       0.25000    0.75000    0.14480   1.00
O1       0.75000    0.25000    0.25000   1.00
Zn1      0.71720    0.28280    0.28280   1.00
Zn1      0.78280    0.21720    0.28280   1.00
Zn1      0.78280    0.28280    0.21720   1.00
Zn1      0.71720    0.21720    0.21720   1.00
O2       0.72650    0.27350    0.33820   1.00
O2       0.72650    0.33820    0.27350   1.00
O2       0.66180    0.27350    0.27350   1.00
O2       0.77350    0.22650    0.33820   1.00
O2       0.83820    0.22650    0.27350   1.00
O2       0.77350    0.16180    0.27350   1.00
O2       0.77350    0.33820    0.22650   1.00
O2       0.83820    0.27350    0.22650   1.00
O2       0.77350    0.27350    0.16180   1.00
O2       0.66180    0.22650    0.22650   1.00
O2       0.72650    0.16180    0.22650   1.00
O2       0.72650    0.22650    0.16180   1.00
C1       0.75000    0.25000    0.35520   1.00
C1       0.75000    0.35520    0.25000   1.00
C1       0.64480    0.25000    0.25000   1.00
C1       0.85520    0.25000    0.25000   1.00
C1       0.75000    0.14480    0.25000   1.00
C1       0.75000    0.25000    0.14480   1.00
O1       0.25000    0.25000    0.25000   1.00
Zn1      0.28280    0.21720    0.21720   1.00
Zn1      0.21720    0.28280    0.21720   1.00
Zn1      0.21720    0.21720    0.28280   1.00
Zn1      0.28280    0.28280    0.28280   1.00
O2       0.27350    0.22650    0.16180   1.00
O2       0.27350    0.16180    0.22650   1.00
O2       0.33820    0.22650    0.22650   1.00
O2       0.22650    0.27350    0.16180   1.00
O2       0.16180    0.27350    0.22650   1.00
O2       0.22650    0.33820    0.22650   1.00
O2       0.22650    0.16180    0.27350   1.00
O2       0.16180    0.22650    0.27350   1.00
O2       0.22650    0.22650    0.33820   1.00
O2       0.33820    0.27350    0.27350   1.00
O2       0.27350    0.33820    0.27350   1.00
O2       0.27350    0.27350    0.33820   1.00
C1       0.25000    0.25000    0.14480   1.00
C1       0.25000    0.14480    0.25000   1.00
C1       0.35520    0.25000    0.25000   1.00
C1       0.14480    0.25000    0.25000   1.00
C1       0.25000    0.35520    0.25000   1.00
C1       0.25000    0.25000    0.35520   1.00
O1       0.75000    0.75000    0.25000   1.00
Zn1      0.78280    0.71720    0.21720   1.00
Zn1      0.71720    0.78280    0.21720   1.00
Zn1      0.71720    0.71720    0.28280   1.00
Zn1      0.78280    0.78280    0.28280   1.00
O2       0.77350    0.72650    0.16180   1.00
O2       0.77350    0.66180    0.22650   1.00
O2       0.83820    0.72650    0.22650   1.00
O2       0.72650    0.77350    0.16180   1.00
O2       0.66180    0.77350    0.22650   1.00
O2       0.72650    0.83820    0.22650   1.00
O2       0.72650    0.66180    0.27350   1.00
O2       0.66180    0.72650    0.27350   1.00
O2       0.72650    0.72650    0.33820   1.00
O2       0.83820    0.77350    0.27350   1.00
O2       0.77350    0.83820    0.27350   1.00
O2       0.77350    0.77350    0.33820   1.00
C1       0.75000    0.75000    0.14480   1.00
C1       0.75000    0.64480    0.25000   1.00
C1       0.85520    0.75000    0.25000   1.00
C1       0.64480    0.75000    0.25000   1.00
C1       0.75000    0.85520    0.25000   1.00
C1       0.75000    0.75000    0.35520   1.00
O1       0.75000    0.25000    0.75000   1.00
Zn1      0.78280    0.21720    0.71720   1.00
Zn1      0.71720    0.28280    0.71720   1.00
Zn1      0.71720    0.21720    0.78280   1.00
Zn1      0.78280    0.28280    0.78280   1.00
O2       0.77350    0.22650    0.66180   1.00
O2       0.77350    0.16180    0.72650   1.00
O2       0.83820    0.22650    0.72650   1.00
O2       0.72650    0.27350    0.66180   1.00
O2       0.66180    0.27350    0.72650   1.00
O2       0.72650    0.33820    0.72650   1.00
O2       0.72650    0.16180    0.77350   1.00
O2       0.66180    0.22650    0.77350   1.00
O2       0.72650    0.22650    0.83820   1.00
O2       0.83820    0.27350    0.77350   1.00
O2       0.77350    0.33820    0.77350   1.00
O2       0.77350    0.27350    0.83820   1.00
C1       0.75000    0.25000    0.64480   1.00
C1       0.75000    0.14480    0.75000   1.00
C1       0.85520    0.25000    0.75000   1.00
C1       0.64480    0.25000    0.75000   1.00
C1       0.75000    0.35520    0.75000   1.00
C1       0.75000    0.25000    0.85520   1.00
O1       0.25000    0.75000    0.75000   1.00
Zn1      0.28280    0.71720    0.71720   1.00
Zn1      0.21720    0.78280    0.71720   1.00
Zn1      0.21720    0.71720    0.78280   1.00
Zn1      0.28280    0.78280    0.78280   1.00
O2       0.27350    0.72650    0.66180   1.00
O2       0.27350    0.66180    0.72650   1.00
O2       0.33820    0.72650    0.72650   1.00
O2       0.22650    0.77350    0.66180   1.00
O2       0.16180    0.77350    0.72650   1.00
O2       0.22650    0.83820    0.72650   1.00
O2       0.22650    0.66180    0.77350   1.00
O2       0.16180    0.72650    0.77350   1.00
O2       0.22650    0.72650    0.83820   1.00
O2       0.33820    0.77350    0.77350   1.00
O2       0.27350    0.83820    0.77350   1.00
O2       0.27350    0.77350    0.83820   1.00
C1       0.25000    0.75000    0.64480   1.00
C1       0.25000    0.64480    0.75000   1.00
C1       0.35520    0.75000    0.75000   1.00
C1       0.14480    0.75000    0.75000   1.00
C1       0.25000    0.85520    0.75000   1.00
C1       0.25000    0.75000    0.85520   1.00
C5       0.86730    0.79870    1.13227   1.00
H2       0.84791    0.81969    1.14755   1.00
H2       0.88434    0.81625    1.11099   1.00
C5       0.89489    0.77913    1.16219   1.00
H2       0.92017    0.79839    1.16890   1.00
H2       0.90589    0.75093    1.15040   1.00
O_3      0.78790    0.69025    0.98000   1.00
C4       0.74966    0.75029    1.02100   1.00
C3c      0.77881    0.76953    1.04243   1.00
H1       0.80182    0.78486    1.02725   1.00
C3d      0.71962    0.73096    1.04135   1.00
C3       0.77911    0.76889    1.08354   1.00
O2       0.80572    0.79226    1.10248   1.00
C3       0.72026    0.72964    1.08227   1.00
H1       0.69739    0.71329    1.09657   1.00
C2       0.74975    0.74858    1.10439   1.00
C5       0.76597    0.65539    0.97879   1.00
H2       0.76141    0.64479    0.94838   1.00
H2       0.73679    0.65941    0.99266   1.00
C5       0.78857    0.62453    1.00122   1.00
H2       0.79409    0.63559    1.03129   1.00
H2       0.81750    0.62050    0.98691   1.00
C5       0.76604    0.58588    1.00254   1.00
H2       0.76019    0.57481    0.97260   1.00
H2       0.73774    0.58958    1.01803   1.00
H2       0.78339    0.56345    1.01830   1.00
C5       0.66041    0.73337    1.01105   1.00
C5       0.83994    0.77073    1.11070   1.00
H2       0.66996    0.75693    0.99088   1.00
H2       0.64643    0.74697    1.03712   1.00
H2       0.85372    0.76058    1.08300   1.00
H2       0.83401    0.74431    1.12895   1.00
H2       0.87968    0.77374    1.19055   1.00
H2       0.61352    0.74776    0.94250   1.00
H2       0.58655    0.75463    0.98766   1.00
C2       0.74957    0.74747    0.89605   1.00
C3       0.73199    0.77895    0.91597   1.00
O2       0.70660    0.80358    0.89674   1.00
C3       0.76862    0.71833    0.91826   1.00
H1       0.78322    0.69439    0.90385   1.00
C3a      0.73292    0.78012    0.95713   1.00
H1       0.71743    0.80323    0.97202   1.00
C3b      0.76841    0.71892    0.95922   1.00
C4       0.75041    0.74992    0.97900   1.00
O_3      0.69194    0.70912    1.02167   1.00
C5       0.72549    0.83889    0.88720   1.00
H2       0.73634    0.85409    0.91391   1.00
C5       0.69538    0.86470    0.86666   1.00
H2       0.75065    0.83363    0.86726   1.00
H2       0.67637    0.87830    0.88923   1.00
H2       0.67628    0.84521    0.84899   1.00
C5       0.71414    0.89630    0.84069   1.00
H2       0.73541    0.91350    0.85811   1.00
H2       0.69155    0.91646    0.82891   1.00
H2       0.72925    0.88313    0.81494   1.00
C5       0.63047    0.70802    0.99020   1.00
H2       0.61608    0.68889    1.01218   1.00
H2       0.64627    0.68850    0.96955   1.00
C5       0.60010    0.73261    0.96803   1.00
H2       0.57654    0.71345    0.95666   1.00
C5       0.79870    1.13227    0.86730   1.00
H2       0.81969    1.14755    0.84791   1.00
H2       0.81625    1.11099    0.88434   1.00
C5       0.77913    1.16219    0.89489   1.00
H2       0.79839    1.16890    0.92017   1.00
H2       0.75093    1.15040    0.90589   1.00
O_3      0.69025    0.98000    0.78790   1.00
C4       0.75029    1.02100    0.74966   1.00
C3c      0.76953    1.04243    0.77881   1.00
H1       0.78486    1.02725    0.80182   1.00
C3d      0.73096    1.04135    0.71962   1.00
C3       0.76889    1.08354    0.77911   1.00
O2       0.79226    1.10248    0.80572   1.00
C3       0.72964    1.08227    0.72026   1.00
H1       0.71329    1.09657    0.69739   1.00
C2       0.74858    1.10439    0.74975   1.00
C5       0.65539    0.97879    0.76597   1.00
H2       0.64479    0.94838    0.76141   1.00
H2       0.65941    0.99266    0.73679   1.00
C5       0.62453    1.00122    0.78857   1.00
H2       0.63559    1.03129    0.79409   1.00
H2       0.62050    0.98691    0.81750   1.00
C5       0.58588    1.00254    0.76604   1.00
H2       0.57481    0.97260    0.76019   1.00
H2       0.58958    1.01803    0.73774   1.00
H2       0.56345    1.01830    0.78339   1.00
C5       0.73337    1.01105    0.66041   1.00
C5       0.77073    1.11070    0.83994   1.00
H2       0.75693    0.99088    0.66996   1.00
H2       0.74697    1.03712    0.64643   1.00
H2       0.76058    1.08300    0.85372   1.00
H2       0.74431    1.12895    0.83401   1.00
H2       0.77374    1.19055    0.87968   1.00
H2       0.74776    0.94250    0.61352   1.00
H2       0.75463    0.98766    0.58655   1.00
C2       0.74747    0.89605    0.74957   1.00
C3       0.77895    0.91597    0.73199   1.00
O2       0.80358    0.89674    0.70660   1.00
C3       0.71833    0.91826    0.76862   1.00
H1       0.69439    0.90385    0.78322   1.00
C3a      0.78012    0.95713    0.73292   1.00
H1       0.80323    0.97202    0.71743   1.00
C3b      0.71892    0.95922    0.76841   1.00
C4       0.74992    0.97900    0.75041   1.00
O_3      0.70912    1.02167    0.69194   1.00
C5       0.83889    0.88720    0.72549   1.00
H2       0.85409    0.91391    0.73634   1.00
C5       0.86470    0.86666    0.69538   1.00
H2       0.83363    0.86726    0.75065   1.00
H2       0.87830    0.88923    0.67637   1.00
H2       0.84521    0.84899    0.67628   1.00
C5       0.89630    0.84069    0.71414   1.00
H2       0.91350    0.85811    0.73541   1.00
H2       0.91646    0.82891    0.69155   1.00
H2       0.88313    0.81494    0.72925   1.00
C5       0.70802    0.99020    0.63047   1.00
H2       0.68889    1.01218    0.61608   1.00
H2       0.68850    0.96955    0.64627   1.00
C5       0.73261    0.96803    0.60010   1.00
H2       0.71345    0.95666    0.57654   1.00
C5       0.36773    0.86730    0.70130   1.00
H2       0.35245    0.84791    0.68031   1.00
H2       0.38901    0.88434    0.68375   1.00
C5       0.33781    0.89489    0.72087   1.00
H2       0.33110    0.92017    0.70161   1.00
H2       0.34960    0.90589    0.74907   1.00
O_3      0.52000    0.78790    0.80975   1.00
C4       0.47900    0.74966    0.74971   1.00
C3c      0.45757    0.77881    0.73047   1.00
H1       0.47275    0.80182    0.71514   1.00
C3d      0.45865    0.71962    0.76904   1.00
C3       0.41646    0.77911    0.73111   1.00
O2       0.39752    0.80572    0.70774   1.00
C3       0.41773    0.72026    0.77036   1.00
H1       0.40343    0.69739    0.78671   1.00
C2       0.39561    0.74975    0.75142   1.00
C5       0.52121    0.76597    0.84461   1.00
H2       0.55162    0.76141    0.85521   1.00
H2       0.50734    0.73679    0.84059   1.00
C5       0.49878    0.78857    0.87547   1.00
H2       0.46871    0.79409    0.86441   1.00
H2       0.51309    0.81750    0.87950   1.00
C5       0.49746    0.76604    0.91412   1.00
H2       0.52740    0.76019    0.92519   1.00
H2       0.48197    0.73774    0.91042   1.00
H2       0.48170    0.78339    0.93655   1.00
C5       0.48895    0.66041    0.76663   1.00
C5       0.38930    0.83994    0.72927   1.00
H2       0.50912    0.66996    0.74307   1.00
H2       0.46288    0.64643    0.75303   1.00
H2       0.41700    0.85372    0.73942   1.00
H2       0.37105    0.83401    0.75569   1.00
H2       0.30945    0.87968    0.72626   1.00
H2       0.55750    0.61352    0.75224   1.00
H2       0.51234    0.58655    0.74537   1.00
C2       0.60395    0.74957    0.75253   1.00
C3       0.58403    0.73199    0.72105   1.00
O2       0.60326    0.70660    0.69642   1.00
C3       0.58174    0.76862    0.78167   1.00
H1       0.59615    0.78322    0.80561   1.00
C3a      0.54287    0.73292    0.71988   1.00
H1       0.52798    0.71743    0.69677   1.00
C3b      0.54078    0.76841    0.78108   1.00
C4       0.52100    0.75041    0.75008   1.00
O_3      0.47833    0.69194    0.79088   1.00
C5       0.61280    0.72549    0.66111   1.00
H2       0.58609    0.73634    0.64591   1.00
C5       0.63334    0.69538    0.63530   1.00
H2       0.63274    0.75065    0.66637   1.00
H2       0.61077    0.67637    0.62170   1.00
H2       0.65101    0.67628    0.65479   1.00
C5       0.65931    0.71414    0.60370   1.00
H2       0.64189    0.73541    0.58650   1.00
H2       0.67109    0.69155    0.58354   1.00
H2       0.68506    0.72925    0.61687   1.00
C5       0.50980    0.63047    0.79198   1.00
H2       0.48782    0.61608    0.81111   1.00
H2       0.53045    0.64627    0.81150   1.00
C5       0.53197    0.60010    0.76739   1.00
H2       0.54334    0.57654    0.78655   1.00
C5       1.13227    0.86730    0.79870   1.00
H2       1.14755    0.84791    0.81969   1.00
H2       1.11099    0.88434    0.81625   1.00
C5       1.16219    0.89489    0.77913   1.00
H2       1.16890    0.92017    0.79839   1.00
H2       1.15040    0.90589    0.75093   1.00
O_3      0.98000    0.78790    0.69025   1.00
C4       1.02100    0.74966    0.75029   1.00
C3c      1.04243    0.77881    0.76953   1.00
H1       1.02725    0.80182    0.78486   1.00
C3d      1.04135    0.71962    0.73096   1.00
C3       1.08354    0.77911    0.76889   1.00
O2       1.10248    0.80572    0.79226   1.00
C3       1.08227    0.72026    0.72964   1.00
H1       1.09657    0.69739    0.71329   1.00
C2       1.10439    0.74975    0.74858   1.00
C5       0.97879    0.76597    0.65539   1.00
H2       0.94838    0.76141    0.64479   1.00
H2       0.99266    0.73679    0.65941   1.00
C5       1.00122    0.78857    0.62453   1.00
H2       1.03129    0.79409    0.63559   1.00
H2       0.98691    0.81750    0.62050   1.00
C5       1.00254    0.76604    0.58588   1.00
H2       0.97260    0.76019    0.57481   1.00
H2       1.01803    0.73774    0.58958   1.00
H2       1.01830    0.78339    0.56345   1.00
C5       1.01105    0.66041    0.73337   1.00
C5       1.11070    0.83994    0.77073   1.00
H2       0.99088    0.66996    0.75693   1.00
H2       1.03712    0.64643    0.74697   1.00
H2       1.08300    0.85372    0.76058   1.00
H2       1.12895    0.83401    0.74431   1.00
H2       1.19055    0.87968    0.77374   1.00
H2       0.94250    0.61352    0.74776   1.00
H2       0.98766    0.58655    0.75463   1.00
C2       0.89605    0.74957    0.74747   1.00
C3       0.91597    0.73199    0.77895   1.00
O2       0.89674    0.70660    0.80358   1.00
C3       0.91826    0.76862    0.71833   1.00
H1       0.90385    0.78322    0.69439   1.00
C3a      0.95713    0.73292    0.78012   1.00
H1       0.97202    0.71743    0.80323   1.00
C3b      0.95922    0.76841    0.71892   1.00
C4       0.97900    0.75041    0.74992   1.00
O_3      1.02167    0.69194    0.70912   1.00
C5       0.88720    0.72549    0.83889   1.00
H2       0.91391    0.73634    0.85409   1.00
C5       0.86666    0.69538    0.86470   1.00
H2       0.86726    0.75065    0.83363   1.00
H2       0.88923    0.67637    0.87830   1.00
H2       0.84899    0.67628    0.84521   1.00
C5       0.84069    0.71414    0.89630   1.00
H2       0.85811    0.73541    0.91350   1.00
H2       0.82891    0.69155    0.91646   1.00
H2       0.81494    0.72925    0.88313   1.00
C5       0.99020    0.63047    0.70802   1.00
H2       1.01218    0.61608    0.68889   1.00
H2       0.96955    0.64627    0.68850   1.00
C5       0.96803    0.60010    0.73261   1.00
H2       0.95666    0.57654    0.71345   1.00
C5       0.70130    0.36773    0.86730   1.00
H2       0.68031    0.35245    0.84791   1.00
H2       0.68375    0.38901    0.88434   1.00
C5       0.72087    0.33781    0.89489   1.00
H2       0.70161    0.33110    0.92017   1.00
H2       0.74907    0.34960    0.90589   1.00
O_3      0.80975    0.52000    0.78790   1.00
C4       0.74971    0.47900    0.74966   1.00
C3c      0.73047    0.45757    0.77881   1.00
H1       0.71514    0.47275    0.80182   1.00
C3d      0.76904    0.45865    0.71962   1.00
C3       0.73111    0.41646    0.77911   1.00
O2       0.70774    0.39752    0.80572   1.00
C3       0.77036    0.41773    0.72026   1.00
H1       0.78671    0.40343    0.69739   1.00
C2       0.75142    0.39561    0.74975   1.00
C5       0.84461    0.52121    0.76597   1.00
H2       0.85521    0.55162    0.76141   1.00
H2       0.84059    0.50734    0.73679   1.00
C5       0.87547    0.49878    0.78857   1.00
H2       0.86441    0.46871    0.79409   1.00
H2       0.87950    0.51309    0.81750   1.00
C5       0.91412    0.49746    0.76604   1.00
H2       0.92519    0.52740    0.76019   1.00
H2       0.91042    0.48197    0.73774   1.00
H2       0.93655    0.48170    0.78339   1.00
C5       0.76663    0.48895    0.66041   1.00
C5       0.72927    0.38930    0.83994   1.00
H2       0.74307    0.50912    0.66996   1.00
H2       0.75303    0.46288    0.64643   1.00
H2       0.73942    0.41700    0.85372   1.00
H2       0.75569    0.37105    0.83401   1.00
H2       0.72626    0.30945    0.87968   1.00
H2       0.75224    0.55750    0.61352   1.00
H2       0.74537    0.51234    0.58655   1.00
C2       0.75253    0.60395    0.74957   1.00
C3       0.72105    0.58403    0.73199   1.00
O2       0.69642    0.60326    0.70660   1.00
C3       0.78167    0.58174    0.76862   1.00
H1       0.80561    0.59615    0.78322   1.00
C3a      0.71988    0.54287    0.73292   1.00
H1       0.69677    0.52798    0.71743   1.00
C3b      0.78108    0.54078    0.76841   1.00
C4       0.75008    0.52100    0.75041   1.00
O_3      0.79088    0.47833    0.69194   1.00
C5       0.66111    0.61280    0.72549   1.00
H2       0.64591    0.58609    0.73634   1.00
C5       0.63530    0.63334    0.69538   1.00
H2       0.66637    0.63274    0.75065   1.00
H2       0.62170    0.61077    0.67637   1.00
H2       0.65479    0.65101    0.67628   1.00
C5       0.60370    0.65931    0.71414   1.00
H2       0.58650    0.64189    0.73541   1.00
H2       0.58354    0.67109    0.69155   1.00
H2       0.61687    0.68506    0.72925   1.00
C5       0.79198    0.50980    0.63047   1.00
H2       0.81111    0.48782    0.61608   1.00
H2       0.81150    0.53045    0.64627   1.00
C5       0.76739    0.53197    0.60010   1.00
H2       0.78655    0.54334    0.57654   1.00
C5       0.86730    0.70130    0.36773   1.00
H2       0.84791    0.68031    0.35245   1.00
H2       0.88434    0.68375    0.38901   1.00
C5       0.89489    0.72087    0.33781   1.00
H2       0.92017    0.70161    0.33110   1.00
H2       0.90589    0.74907    0.34960   1.00
O_3      0.78790    0.80975    0.52000   1.00
C4       0.74966    0.74971    0.47900   1.00
C3c      0.77881    0.73047    0.45757   1.00
H1       0.80182    0.71514    0.47275   1.00
C3d      0.71962    0.76904    0.45865   1.00
C3       0.77911    0.73111    0.41646   1.00
O2       0.80572    0.70774    0.39752   1.00
C3       0.72026    0.77036    0.41773   1.00
H1       0.69739    0.78671    0.40343   1.00
C2       0.74975    0.75142    0.39561   1.00
C5       0.76597    0.84461    0.52121   1.00
H2       0.76141    0.85521    0.55162   1.00
H2       0.73679    0.84059    0.50734   1.00
C5       0.78857    0.87547    0.49878   1.00
H2       0.79409    0.86441    0.46871   1.00
H2       0.81750    0.87950    0.51309   1.00
C5       0.76604    0.91412    0.49746   1.00
H2       0.76019    0.92519    0.52740   1.00
H2       0.73774    0.91042    0.48197   1.00
H2       0.78339    0.93655    0.48170   1.00
C5       0.66041    0.76663    0.48895   1.00
C5       0.83994    0.72927    0.38930   1.00
H2       0.66996    0.74307    0.50912   1.00
H2       0.64643    0.75303    0.46288   1.00
H2       0.85372    0.73942    0.41700   1.00
H2       0.83401    0.75569    0.37105   1.00
H2       0.87968    0.72626    0.30945   1.00
H2       0.61352    0.75224    0.55750   1.00
H2       0.58655    0.74537    0.51234   1.00
C2       0.74957    0.75253    0.60395   1.00
C3       0.73199    0.72105    0.58403   1.00
O2       0.70660    0.69642    0.60326   1.00
C3       0.76862    0.78167    0.58174   1.00
H1       0.78322    0.80561    0.59615   1.00
C3a      0.73292    0.71988    0.54287   1.00
H1       0.71743    0.69677    0.52798   1.00
C3b      0.76841    0.78108    0.54078   1.00
C4       0.75041    0.75008    0.52100   1.00
O_3      0.69194    0.79088    0.47833   1.00
C5       0.72549    0.66111    0.61280   1.00
H2       0.73634    0.64591    0.58609   1.00
C5       0.69538    0.63530    0.63334   1.00
H2       0.75065    0.66637    0.63274   1.00
H2       0.67637    0.62170    0.61077   1.00
H2       0.67628    0.65479    0.65101   1.00
C5       0.71414    0.60370    0.65931   1.00
H2       0.73541    0.58650    0.64189   1.00
H2       0.69155    0.58354    0.67109   1.00
H2       0.72925    0.61687    0.68506   1.00
C5       0.63047    0.79198    0.50980   1.00
H2       0.61608    0.81111    0.48782   1.00
H2       0.64627    0.81150    0.53045   1.00
C5       0.60010    0.76739    0.53197   1.00
H2       0.57654    0.78655    0.54334   1.00
C5       0.36730    0.29870    1.13227   1.00
H2       0.34791    0.31969    1.14755   1.00
H2       0.38434    0.31625    1.11099   1.00
C5       0.39489    0.27913    1.16219   1.00
H2       0.42017    0.29839    1.16890   1.00
H2       0.40589    0.25093    1.15040   1.00
O_3      0.28790    0.19025    0.98000   1.00
C4       0.24966    0.25029    1.02100   1.00
C3c      0.27881    0.26953    1.04243   1.00
H1       0.30182    0.28486    1.02725   1.00
C3d      0.21962    0.23096    1.04135   1.00
C3       0.27911    0.26889    1.08354   1.00
O2       0.30572    0.29226    1.10248   1.00
C3       0.22026    0.22964    1.08227   1.00
H1       0.19739    0.21329    1.09657   1.00
C2       0.24975    0.24858    1.10439   1.00
C5       0.26597    0.15539    0.97879   1.00
H2       0.26141    0.14479    0.94838   1.00
H2       0.23679    0.15941    0.99266   1.00
C5       0.28857    0.12453    1.00122   1.00
H2       0.29409    0.13559    1.03129   1.00
H2       0.31750    0.12050    0.98691   1.00
C5       0.26604    0.08588    1.00254   1.00
H2       0.26019    0.07481    0.97260   1.00
H2       0.23774    0.08958    1.01803   1.00
H2       0.28339    0.06345    1.01830   1.00
C5       0.16041    0.23337    1.01105   1.00
C5       0.33994    0.27073    1.11070   1.00
H2       0.16996    0.25693    0.99088   1.00
H2       0.14643    0.24697    1.03712   1.00
H2       0.35372    0.26058    1.08300   1.00
H2       0.33401    0.24431    1.12895   1.00
H2       0.37968    0.27374    1.19055   1.00
H2       0.11352    0.24776    0.94250   1.00
H2       0.08655    0.25463    0.98766   1.00
C2       0.24957    0.24747    0.89605   1.00
C3       0.23199    0.27895    0.91597   1.00
O2       0.20660    0.30358    0.89674   1.00
C3       0.26862    0.21833    0.91826   1.00
H1       0.28322    0.19439    0.90385   1.00
C3a      0.23292    0.28012    0.95713   1.00
H1       0.21743    0.30323    0.97202   1.00
C3b      0.26841    0.21892    0.95922   1.00
C4       0.25041    0.24992    0.97900   1.00
O_3      0.19194    0.20912    1.02167   1.00
C5       0.22549    0.33889    0.88720   1.00
H2       0.23634    0.35409    0.91391   1.00
C5       0.19538    0.36470    0.86666   1.00
H2       0.25065    0.33363    0.86726   1.00
H2       0.17637    0.37830    0.88923   1.00
H2       0.17628    0.34521    0.84899   1.00
C5       0.21414    0.39630    0.84069   1.00
H2       0.23541    0.41350    0.85811   1.00
H2       0.19155    0.41646    0.82891   1.00
H2       0.22925    0.38313    0.81494   1.00
C5       0.13047    0.20802    0.99020   1.00
H2       0.11608    0.18889    1.01218   1.00
H2       0.14627    0.18850    0.96955   1.00
C5       0.10010    0.23261    0.96803   1.00
H2       0.07654    0.21345    0.95666   1.00
C5       0.29870    0.63227    0.86730   1.00
H2       0.31969    0.64755    0.84791   1.00
H2       0.31625    0.61099    0.88434   1.00
C5       0.27913    0.66219    0.89489   1.00
H2       0.29839    0.66890    0.92017   1.00
H2       0.25093    0.65040    0.90589   1.00
O_3      0.19025    0.48000    0.78790   1.00
C4       0.25029    0.52100    0.74966   1.00
C3c      0.26953    0.54243    0.77881   1.00
H1       0.28486    0.52725    0.80182   1.00
C3d      0.23096    0.54135    0.71962   1.00
C3       0.26889    0.58354    0.77911   1.00
O2       0.29226    0.60248    0.80572   1.00
C3       0.22964    0.58227    0.72026   1.00
H1       0.21329    0.59657    0.69739   1.00
C2       0.24858    0.60439    0.74975   1.00
C5       0.15539    0.47879    0.76597   1.00
H2       0.14479    0.44838    0.76141   1.00
H2       0.15941    0.49266    0.73679   1.00
C5       0.12453    0.50122    0.78857   1.00
H2       0.13559    0.53129    0.79409   1.00
H2       0.12050    0.48691    0.81750   1.00
C5       0.08588    0.50254    0.76604   1.00
H2       0.07481    0.47260    0.76019   1.00
H2       0.08958    0.51803    0.73774   1.00
H2       0.06345    0.51830    0.78339   1.00
C5       0.23337    0.51105    0.66041   1.00
C5       0.27073    0.61070    0.83994   1.00
H2       0.25693    0.49088    0.66996   1.00
H2       0.24697    0.53712    0.64643   1.00
H2       0.26058    0.58300    0.85372   1.00
H2       0.24431    0.62895    0.83401   1.00
H2       0.27374    0.69055    0.87968   1.00
H2       0.24776    0.44250    0.61352   1.00
H2       0.25463    0.48766    0.58655   1.00
C2       0.24747    0.39605    0.74957   1.00
C3       0.27895    0.41597    0.73199   1.00
O2       0.30358    0.39674    0.70660   1.00
C3       0.21833    0.41826    0.76862   1.00
H1       0.19439    0.40385    0.78322   1.00
C3a      0.28012    0.45713    0.73292   1.00
H1       0.30323    0.47202    0.71743   1.00
C3b      0.21892    0.45922    0.76841   1.00
C4       0.24992    0.47900    0.75041   1.00
O_3      0.20912    0.52167    0.69194   1.00
C5       0.33889    0.38720    0.72549   1.00
H2       0.35409    0.41391    0.73634   1.00
C5       0.36470    0.36666    0.69538   1.00
H2       0.33363    0.36726    0.75065   1.00
H2       0.37830    0.38923    0.67637   1.00
H2       0.34521    0.34899    0.67628   1.00
C5       0.39630    0.34069    0.71414   1.00
H2       0.41350    0.35811    0.73541   1.00
H2       0.41646    0.32891    0.69155   1.00
H2       0.38313    0.31494    0.72925   1.00
C5       0.20802    0.49020    0.63047   1.00
H2       0.18889    0.51218    0.61608   1.00
H2       0.18850    0.46955    0.64627   1.00
C5       0.23261    0.46803    0.60010   1.00
H2       0.21345    0.45666    0.57654   1.00
C5       -0.13227   0.36730    0.70130   1.00
H2       -0.14755   0.34791    0.68031   1.00
H2       -0.11099   0.38434    0.68375   1.00
C5       -0.16219   0.39489    0.72087   1.00
H2       -0.16890   0.42017    0.70161   1.00
H2       -0.15040   0.40589    0.74907   1.00
O_3      0.02000    0.28790    0.80975   1.00
C4       -0.02100   0.24966    0.74971   1.00
C3c      -0.04243   0.27881    0.73047   1.00
H1       -0.02725   0.30182    0.71514   1.00
C3d      -0.04135   0.21962    0.76904   1.00
C3       -0.08354   0.27911    0.73111   1.00
O2       -0.10248   0.30572    0.70774   1.00
C3       -0.08227   0.22026    0.77036   1.00
H1       -0.09657   0.19739    0.78671   1.00
C2       -0.10439   0.24975    0.75142   1.00
C5       0.02121    0.26597    0.84461   1.00
H2       0.05162    0.26141    0.85521   1.00
H2       0.00734    0.23679    0.84059   1.00
C5       -0.00122   0.28857    0.87547   1.00
H2       -0.03129   0.29409    0.86441   1.00
H2       0.01309    0.31750    0.87950   1.00
C5       -0.00254   0.26604    0.91412   1.00
H2       0.02740    0.26019    0.92519   1.00
H2       -0.01803   0.23774    0.91042   1.00
H2       -0.01830   0.28339    0.93655   1.00
C5       -0.01105   0.16041    0.76663   1.00
C5       -0.11070   0.33994    0.72927   1.00
H2       0.00912    0.16996    0.74307   1.00
H2       -0.03712   0.14643    0.75303   1.00
H2       -0.08300   0.35372    0.73942   1.00
H2       -0.12895   0.33401    0.75569   1.00
H2       -0.19055   0.37968    0.72626   1.00
H2       0.05750    0.11352    0.75224   1.00
H2       0.01234    0.08655    0.74537   1.00
C2       0.10395    0.24957    0.75253   1.00
C3       0.08403    0.23199    0.72105   1.00
O2       0.10326    0.20660    0.69642   1.00
C3       0.08174    0.26862    0.78167   1.00
H1       0.09615    0.28322    0.80561   1.00
C3a      0.04287    0.23292    0.71988   1.00
H1       0.02798    0.21743    0.69677   1.00
C3b      0.04078    0.26841    0.78108   1.00
C4       0.02100    0.25041    0.75008   1.00
O_3      -0.02167   0.19194    0.79088   1.00
C5       0.11280    0.22549    0.66111   1.00
H2       0.08609    0.23634    0.64591   1.00
C5       0.13334    0.19538    0.63530   1.00
H2       0.13274    0.25065    0.66637   1.00
H2       0.11077    0.17637    0.62170   1.00
H2       0.15101    0.17628    0.65479   1.00
C5       0.15931    0.21414    0.60370   1.00
H2       0.14189    0.23541    0.58650   1.00
H2       0.17109    0.19155    0.58354   1.00
H2       0.18506    0.22925    0.61687   1.00
C5       0.00980    0.13047    0.79198   1.00
H2       -0.01218   0.11608    0.81111   1.00
H2       0.03045    0.14627    0.81150   1.00
C5       0.03197    0.10010    0.76739   1.00
H2       0.04334    0.07654    0.78655   1.00
C5       0.63227    0.36730    0.79870   1.00
H2       0.64755    0.34791    0.81969   1.00
H2       0.61099    0.38434    0.81625   1.00
C5       0.66219    0.39489    0.77913   1.00
H2       0.66890    0.42017    0.79839   1.00
H2       0.65040    0.40589    0.75093   1.00
O_3      0.48000    0.28790    0.69025   1.00
C4       0.52100    0.24966    0.75029   1.00
C3c      0.54243    0.27881    0.76953   1.00
H1       0.52725    0.30182    0.78486   1.00
C3d      0.54135    0.21962    0.73096   1.00
C3       0.58354    0.27911    0.76889   1.00
O2       0.60248    0.30572    0.79226   1.00
C3       0.58227    0.22026    0.72964   1.00
H1       0.59657    0.19739    0.71329   1.00
C2       0.60439    0.24975    0.74858   1.00
C5       0.47879    0.26597    0.65539   1.00
H2       0.44838    0.26141    0.64479   1.00
H2       0.49266    0.23679    0.65941   1.00
C5       0.50122    0.28857    0.62453   1.00
H2       0.53129    0.29409    0.63559   1.00
H2       0.48691    0.31750    0.62050   1.00
C5       0.50254    0.26604    0.58588   1.00
H2       0.47260    0.26019    0.57481   1.00
H2       0.51803    0.23774    0.58958   1.00
H2       0.51830    0.28339    0.56345   1.00
C5       0.51105    0.16041    0.73337   1.00
C5       0.61070    0.33994    0.77073   1.00
H2       0.49088    0.16996    0.75693   1.00
H2       0.53712    0.14643    0.74697   1.00
H2       0.58300    0.35372    0.76058   1.00
H2       0.62895    0.33401    0.74431   1.00
H2       0.69055    0.37968    0.77374   1.00
H2       0.44250    0.11352    0.74776   1.00
H2       0.48766    0.08655    0.75463   1.00
C2       0.39605    0.24957    0.74747   1.00
C3       0.41597    0.23199    0.77895   1.00
O2       0.39674    0.20660    0.80358   1.00
C3       0.41826    0.26862    0.71833   1.00
H1       0.40385    0.28322    0.69439   1.00
C3a      0.45713    0.23292    0.78012   1.00
H1       0.47202    0.21743    0.80323   1.00
C3b      0.45922    0.26841    0.71892   1.00
C4       0.47900    0.25041    0.74992   1.00
O_3      0.52167    0.19194    0.70912   1.00
C5       0.38720    0.22549    0.83889   1.00
H2       0.41391    0.23634    0.85409   1.00
C5       0.36666    0.19538    0.86470   1.00
H2       0.36726    0.25065    0.83363   1.00
H2       0.38923    0.17637    0.87830   1.00
H2       0.34899    0.17628    0.84521   1.00
C5       0.34069    0.21414    0.89630   1.00
H2       0.35811    0.23541    0.91350   1.00
H2       0.32891    0.19155    0.91646   1.00
H2       0.31494    0.22925    0.88313   1.00
C5       0.49020    0.13047    0.70802   1.00
H2       0.51218    0.11608    0.68889   1.00
H2       0.46955    0.14627    0.68850   1.00
C5       0.46803    0.10010    0.73261   1.00
H2       0.45666    0.07654    0.71345   1.00
C5       0.20130    -0.13227   0.86730   1.00
H2       0.18031    -0.14755   0.84791   1.00
H2       0.18375    -0.11099   0.88434   1.00
C5       0.22087    -0.16219   0.89489   1.00
H2       0.20161    -0.16890   0.92017   1.00
H2       0.24907    -0.15040   0.90589   1.00
O_3      0.30975    0.02000    0.78790   1.00
C4       0.24971    -0.02100   0.74966   1.00
C3c      0.23047    -0.04243   0.77881   1.00
H1       0.21514    -0.02725   0.80182   1.00
C3d      0.26904    -0.04135   0.71962   1.00
C3       0.23111    -0.08354   0.77911   1.00
O2       0.20774    -0.10248   0.80572   1.00
C3       0.27036    -0.08227   0.72026   1.00
H1       0.28671    -0.09657   0.69739   1.00
C2       0.25142    -0.10439   0.74975   1.00
C5       0.34461    0.02121    0.76597   1.00
H2       0.35521    0.05162    0.76141   1.00
H2       0.34059    0.00734    0.73679   1.00
C5       0.37547    -0.00122   0.78857   1.00
H2       0.36441    -0.03129   0.79409   1.00
H2       0.37950    0.01309    0.81750   1.00
C5       0.41412    -0.00254   0.76604   1.00
H2       0.42519    0.02740    0.76019   1.00
H2       0.41042    -0.01803   0.73774   1.00
H2       0.43655    -0.01830   0.78339   1.00
C5       0.26663    -0.01105   0.66041   1.00
C5       0.22927    -0.11070   0.83994   1.00
H2       0.24307    0.00912    0.66996   1.00
H2       0.25303    -0.03712   0.64643   1.00
H2       0.23942    -0.08300   0.85372   1.00
H2       0.25569    -0.12895   0.83401   1.00
H2       0.22626    -0.19055   0.87968   1.00
H2       0.25224    0.05750    0.61352   1.00
H2       0.24537    0.01234    0.58655   1.00
C2       0.25253    0.10395    0.74957   1.00
C3       0.22105    0.08403    0.73199   1.00
O2       0.19642    0.10326    0.70660   1.00
C3       0.28167    0.08174    0.76862   1.00
H1       0.30561    0.09615    0.78322   1.00
C3a      0.21988    0.04287    0.73292   1.00
H1       0.19677    0.02798    0.71743   1.00
C3b      0.28108    0.04078    0.76841   1.00
C4       0.25008    0.02100    0.75041   1.00
O_3      0.29088    -0.02167   0.69194   1.00
C5       0.16111    0.11280    0.72549   1.00
H2       0.14591    0.08609    0.73634   1.00
C5       0.13530    0.13334    0.69538   1.00
H2       0.16637    0.13274    0.75065   1.00
H2       0.12170    0.11077    0.67637   1.00
H2       0.15479    0.15101    0.67628   1.00
C5       0.10370    0.15931    0.71414   1.00
H2       0.08650    0.14189    0.73541   1.00
H2       0.08354    0.17109    0.69155   1.00
H2       0.11687    0.18506    0.72925   1.00
C5       0.29198    0.00980    0.63047   1.00
H2       0.31111    -0.01218   0.61608   1.00
H2       0.31150    0.03045    0.64627   1.00
C5       0.26739    0.03197    0.60010   1.00
H2       0.28655    0.04334    0.57654   1.00
C5       0.36730    0.20130    0.36773   1.00
H2       0.34791    0.18031    0.35245   1.00
H2       0.38434    0.18375    0.38901   1.00
C5       0.39489    0.22087    0.33781   1.00
H2       0.42017    0.20161    0.33110   1.00
H2       0.40589    0.24907    0.34960   1.00
O_3      0.28790    0.30975    0.52000   1.00
C4       0.24966    0.24971    0.47900   1.00
C3c      0.27881    0.23047    0.45757   1.00
H1       0.30182    0.21514    0.47275   1.00
C3d      0.21962    0.26904    0.45865   1.00
C3       0.27911    0.23111    0.41646   1.00
O2       0.30572    0.20774    0.39752   1.00
C3       0.22026    0.27036    0.41773   1.00
H1       0.19739    0.28671    0.40343   1.00
C2       0.24975    0.25142    0.39561   1.00
C5       0.26597    0.34461    0.52121   1.00
H2       0.26141    0.35521    0.55162   1.00
H2       0.23679    0.34059    0.50734   1.00
C5       0.28857    0.37547    0.49878   1.00
H2       0.29409    0.36441    0.46871   1.00
H2       0.31750    0.37950    0.51309   1.00
C5       0.26604    0.41412    0.49746   1.00
H2       0.26019    0.42519    0.52740   1.00
H2       0.23774    0.41042    0.48197   1.00
H2       0.28339    0.43655    0.48170   1.00
C5       0.16041    0.26663    0.48895   1.00
C5       0.33994    0.22927    0.38930   1.00
H2       0.16996    0.24307    0.50912   1.00
H2       0.14643    0.25303    0.46288   1.00
H2       0.35372    0.23942    0.41700   1.00
H2       0.33401    0.25569    0.37105   1.00
H2       0.37968    0.22626    0.30945   1.00
H2       0.11352    0.25224    0.55750   1.00
H2       0.08655    0.24537    0.51234   1.00
C2       0.24957    0.25253    0.60395   1.00
C3       0.23199    0.22105    0.58403   1.00
O2       0.20660    0.19642    0.60326   1.00
C3       0.26862    0.28167    0.58174   1.00
H1       0.28322    0.30561    0.59615   1.00
C3a      0.23292    0.21988    0.54287   1.00
H1       0.21743    0.19677    0.52798   1.00
C3b      0.26841    0.28108    0.54078   1.00
C4       0.25041    0.25008    0.52100   1.00
O_3      0.19194    0.29088    0.47833   1.00
C5       0.22549    0.16111    0.61280   1.00
H2       0.23634    0.14591    0.58609   1.00
C5       0.19538    0.13530    0.63334   1.00
H2       0.25065    0.16637    0.63274   1.00
H2       0.17637    0.12170    0.61077   1.00
H2       0.17628    0.15479    0.65101   1.00
C5       0.21414    0.10370    0.65931   1.00
H2       0.23541    0.08650    0.64189   1.00
H2       0.19155    0.08354    0.67109   1.00
H2       0.22925    0.11687    0.68506   1.00
C5       0.13047    0.29198    0.50980   1.00
H2       0.11608    0.31111    0.48782   1.00
H2       0.14627    0.31150    0.53045   1.00
C5       0.10010    0.26739    0.53197   1.00
H2       0.07654    0.28655    0.54334   1.00
C5       0.36730    0.79870    0.63227   1.00
H2       0.34791    0.81969    0.64755   1.00
H2       0.38434    0.81625    0.61099   1.00
C5       0.39489    0.77913    0.66219   1.00
H2       0.42017    0.79839    0.66890   1.00
H2       0.40589    0.75093    0.65040   1.00
O_3      0.28790    0.69025    0.48000   1.00
C4       0.24966    0.75029    0.52100   1.00
C3c      0.27881    0.76953    0.54243   1.00
H1       0.30182    0.78486    0.52725   1.00
C3d      0.21962    0.73096    0.54135   1.00
C3       0.27911    0.76889    0.58354   1.00
O2       0.30572    0.79226    0.60248   1.00
C3       0.22026    0.72964    0.58227   1.00
H1       0.19739    0.71329    0.59657   1.00
C2       0.24975    0.74858    0.60439   1.00
C5       0.26597    0.65539    0.47879   1.00
H2       0.26141    0.64479    0.44838   1.00
H2       0.23679    0.65941    0.49266   1.00
C5       0.28857    0.62453    0.50122   1.00
H2       0.29409    0.63559    0.53129   1.00
H2       0.31750    0.62050    0.48691   1.00
C5       0.26604    0.58588    0.50254   1.00
H2       0.26019    0.57481    0.47260   1.00
H2       0.23774    0.58958    0.51803   1.00
H2       0.28339    0.56345    0.51830   1.00
C5       0.16041    0.73337    0.51105   1.00
C5       0.33994    0.77073    0.61070   1.00
H2       0.16996    0.75693    0.49088   1.00
H2       0.14643    0.74697    0.53712   1.00
H2       0.35372    0.76058    0.58300   1.00
H2       0.33401    0.74431    0.62895   1.00
H2       0.37968    0.77374    0.69055   1.00
H2       0.11352    0.74776    0.44250   1.00
H2       0.08655    0.75463    0.48766   1.00
C2       0.24957    0.74747    0.39605   1.00
C3       0.23199    0.77895    0.41597   1.00
O2       0.20660    0.80358    0.39674   1.00
C3       0.26862    0.71833    0.41826   1.00
H1       0.28322    0.69439    0.40385   1.00
C3a      0.23292    0.78012    0.45713   1.00
H1       0.21743    0.80323    0.47202   1.00
C3b      0.26841    0.71892    0.45922   1.00
C4       0.25041    0.74992    0.47900   1.00
O_3      0.19194    0.70912    0.52167   1.00
C5       0.22549    0.83889    0.38720   1.00
H2       0.23634    0.85409    0.41391   1.00
C5       0.19538    0.86470    0.36666   1.00
H2       0.25065    0.83363    0.36726   1.00
H2       0.17637    0.87830    0.38923   1.00
H2       0.17628    0.84521    0.34899   1.00
C5       0.21414    0.89630    0.34069   1.00
H2       0.23541    0.91350    0.35811   1.00
H2       0.19155    0.91646    0.32891   1.00
H2       0.22925    0.88313    0.31494   1.00
C5       0.13047    0.70802    0.49020   1.00
H2       0.11608    0.68889    0.51218   1.00
H2       0.14627    0.68850    0.46955   1.00
C5       0.10010    0.73261    0.46803   1.00
H2       0.07654    0.71345    0.45666   1.00
C5       0.29870    1.13227    0.36730   1.00
H2       0.31969    1.14755    0.34791   1.00
H2       0.31625    1.11099    0.38434   1.00
C5       0.27913    1.16219    0.39489   1.00
H2       0.29839    1.16890    0.42017   1.00
H2       0.25093    1.15040    0.40589   1.00
O_3      0.19025    0.98000    0.28790   1.00
C4       0.25029    1.02100    0.24966   1.00
C3c      0.26953    1.04243    0.27881   1.00
H1       0.28486    1.02725    0.30182   1.00
C3d      0.23096    1.04135    0.21962   1.00
C3       0.26889    1.08354    0.27911   1.00
O2       0.29226    1.10248    0.30572   1.00
C3       0.22964    1.08227    0.22026   1.00
H1       0.21329    1.09657    0.19739   1.00
C2       0.24858    1.10439    0.24975   1.00
C5       0.15539    0.97879    0.26597   1.00
H2       0.14479    0.94838    0.26141   1.00
H2       0.15941    0.99266    0.23679   1.00
C5       0.12453    1.00122    0.28857   1.00
H2       0.13559    1.03129    0.29409   1.00
H2       0.12050    0.98691    0.31750   1.00
C5       0.08588    1.00254    0.26604   1.00
H2       0.07481    0.97260    0.26019   1.00
H2       0.08958    1.01803    0.23774   1.00
H2       0.06345    1.01830    0.28339   1.00
C5       0.23337    1.01105    0.16041   1.00
C5       0.27073    1.11070    0.33994   1.00
H2       0.25693    0.99088    0.16996   1.00
H2       0.24697    1.03712    0.14643   1.00
H2       0.26058    1.08300    0.35372   1.00
H2       0.24431    1.12895    0.33401   1.00
H2       0.27374    1.19055    0.37968   1.00
H2       0.24776    0.94250    0.11352   1.00
H2       0.25463    0.98766    0.08655   1.00
C2       0.24747    0.89605    0.24957   1.00
C3       0.27895    0.91597    0.23199   1.00
O2       0.30358    0.89674    0.20660   1.00
C3       0.21833    0.91826    0.26862   1.00
H1       0.19439    0.90385    0.28322   1.00
C3a      0.28012    0.95713    0.23292   1.00
H1       0.30323    0.97202    0.21743   1.00
C3b      0.21892    0.95922    0.26841   1.00
C4       0.24992    0.97900    0.25041   1.00
O_3      0.20912    1.02167    0.19194   1.00
C5       0.33889    0.88720    0.22549   1.00
H2       0.35409    0.91391    0.23634   1.00
C5       0.36470    0.86666    0.19538   1.00
H2       0.33363    0.86726    0.25065   1.00
H2       0.37830    0.88923    0.17637   1.00
H2       0.34521    0.84899    0.17628   1.00
C5       0.39630    0.84069    0.21414   1.00
H2       0.41350    0.85811    0.23541   1.00
H2       0.41646    0.82891    0.19155   1.00
H2       0.38313    0.81494    0.22925   1.00
C5       0.20802    0.99020    0.13047   1.00
H2       0.18889    1.01218    0.11608   1.00
H2       0.18850    0.96955    0.14627   1.00
C5       0.23261    0.96803    0.10010   1.00
H2       0.21345    0.95666    0.07654   1.00
C5       -0.13227   0.86730    0.20130   1.00
H2       -0.14755   0.84791    0.18031   1.00
H2       -0.11099   0.88434    0.18375   1.00
C5       -0.16219   0.89489    0.22087   1.00
H2       -0.16890   0.92017    0.20161   1.00
H2       -0.15040   0.90589    0.24907   1.00
O_3      0.02000    0.78790    0.30975   1.00
C4       -0.02100   0.74966    0.24971   1.00
C3c      -0.04243   0.77881    0.23047   1.00
H1       -0.02725   0.80182    0.21514   1.00
C3d      -0.04135   0.71962    0.26904   1.00
C3       -0.08354   0.77911    0.23111   1.00
O2       -0.10248   0.80572    0.20774   1.00
C3       -0.08227   0.72026    0.27036   1.00
H1       -0.09657   0.69739    0.28671   1.00
C2       -0.10439   0.74975    0.25142   1.00
C5       0.02121    0.76597    0.34461   1.00
H2       0.05162    0.76141    0.35521   1.00
H2       0.00734    0.73679    0.34059   1.00
C5       -0.00122   0.78857    0.37547   1.00
H2       -0.03129   0.79409    0.36441   1.00
H2       0.01309    0.81750    0.37950   1.00
C5       -0.00254   0.76604    0.41412   1.00
H2       0.02740    0.76019    0.42519   1.00
H2       -0.01803   0.73774    0.41042   1.00
H2       -0.01830   0.78339    0.43655   1.00
C5       -0.01105   0.66041    0.26663   1.00
C5       -0.11070   0.83994    0.22927   1.00
H2       0.00912    0.66996    0.24307   1.00
H2       -0.03712   0.64643    0.25303   1.00
H2       -0.08300   0.85372    0.23942   1.00
H2       -0.12895   0.83401    0.25569   1.00
H2       -0.19055   0.87968    0.22626   1.00
H2       0.05750    0.61352    0.25224   1.00
H2       0.01234    0.58655    0.24537   1.00
C2       0.10395    0.74957    0.25253   1.00
C3       0.08403    0.73199    0.22105   1.00
O2       0.10326    0.70660    0.19642   1.00
C3       0.08174    0.76862    0.28167   1.00
H1       0.09615    0.78322    0.30561   1.00
C3a      0.04287    0.73292    0.21988   1.00
H1       0.02798    0.71743    0.19677   1.00
C3b      0.04078    0.76841    0.28108   1.00
C4       0.02100    0.75041    0.25008   1.00
O_3      -0.02167   0.69194    0.29088   1.00
C5       0.11280    0.72549    0.16111   1.00
H2       0.08609    0.73634    0.14591   1.00
C5       0.13334    0.69538    0.13530   1.00
H2       0.13274    0.75065    0.16637   1.00
H2       0.11077    0.67637    0.12170   1.00
H2       0.15101    0.67628    0.15479   1.00
C5       0.15931    0.71414    0.10370   1.00
H2       0.14189    0.73541    0.08650   1.00
H2       0.17109    0.69155    0.08354   1.00
H2       0.18506    0.72925    0.11687   1.00
C5       0.00980    0.63047    0.29198   1.00
H2       -0.01218   0.61608    0.31111   1.00
H2       0.03045    0.64627    0.31150   1.00
C5       0.03197    0.60010    0.26739   1.00
H2       0.04334    0.57654    0.28655   1.00
C5       0.63227    0.86730    0.29870   1.00
H2       0.64755    0.84791    0.31969   1.00
H2       0.61099    0.88434    0.31625   1.00
C5       0.66219    0.89489    0.27913   1.00
H2       0.66890    0.92017    0.29839   1.00
H2       0.65040    0.90589    0.25093   1.00
O_3      0.48000    0.78790    0.19025   1.00
C4       0.52100    0.74966    0.25029   1.00
C3c      0.54243    0.77881    0.26953   1.00
H1       0.52725    0.80182    0.28486   1.00
C3d      0.54135    0.71962    0.23096   1.00
C3       0.58354    0.77911    0.26889   1.00
O2       0.60248    0.80572    0.29226   1.00
C3       0.58227    0.72026    0.22964   1.00
H1       0.59657    0.69739    0.21329   1.00
C2       0.60439    0.74975    0.24858   1.00
C5       0.47879    0.76597    0.15539   1.00
H2       0.44838    0.76141    0.14479   1.00
H2       0.49266    0.73679    0.15941   1.00
C5       0.50122    0.78857    0.12453   1.00
H2       0.53129    0.79409    0.13559   1.00
H2       0.48691    0.81750    0.12050   1.00
C5       0.50254    0.76604    0.08588   1.00
H2       0.47260    0.76019    0.07481   1.00
H2       0.51803    0.73774    0.08958   1.00
H2       0.51830    0.78339    0.06345   1.00
C5       0.51105    0.66041    0.23337   1.00
C5       0.61070    0.83994    0.27073   1.00
H2       0.49088    0.66996    0.25693   1.00
H2       0.53712    0.64643    0.24697   1.00
H2       0.58300    0.85372    0.26058   1.00
H2       0.62895    0.83401    0.24431   1.00
H2       0.69055    0.87968    0.27374   1.00
H2       0.44250    0.61352    0.24776   1.00
H2       0.48766    0.58655    0.25463   1.00
C2       0.39605    0.74957    0.24747   1.00
C3       0.41597    0.73199    0.27895   1.00
O2       0.39674    0.70660    0.30358   1.00
C3       0.41826    0.76862    0.21833   1.00
H1       0.40385    0.78322    0.19439   1.00
C3a      0.45713    0.73292    0.28012   1.00
H1       0.47202    0.71743    0.30323   1.00
C3b      0.45922    0.76841    0.21892   1.00
C4       0.47900    0.75041    0.24992   1.00
O_3      0.52167    0.69194    0.20912   1.00
C5       0.38720    0.72549    0.33889   1.00
H2       0.41391    0.73634    0.35409   1.00
C5       0.36666    0.69538    0.36470   1.00
H2       0.36726    0.75065    0.33363   1.00
H2       0.38923    0.67637    0.37830   1.00
H2       0.34899    0.67628    0.34521   1.00
C5       0.34069    0.71414    0.39630   1.00
H2       0.35811    0.73541    0.41350   1.00
H2       0.32891    0.69155    0.41646   1.00
H2       0.31494    0.72925    0.38313   1.00
C5       0.49020    0.63047    0.20802   1.00
H2       0.51218    0.61608    0.18889   1.00
H2       0.46955    0.64627    0.18850   1.00
C5       0.46803    0.60010    0.23261   1.00
H2       0.45666    0.57654    0.21345   1.00
C5       0.20130    0.36773    0.36730   1.00
H2       0.18031    0.35245    0.34791   1.00
H2       0.18375    0.38901    0.38434   1.00
C5       0.22087    0.33781    0.39489   1.00
H2       0.20161    0.33110    0.42017   1.00
H2       0.24907    0.34960    0.40589   1.00
O_3      0.30975    0.52000    0.28790   1.00
C4       0.24971    0.47900    0.24966   1.00
C3c      0.23047    0.45757    0.27881   1.00
H1       0.21514    0.47275    0.30182   1.00
C3d      0.26904    0.45865    0.21962   1.00
C3       0.23111    0.41646    0.27911   1.00
O2       0.20774    0.39752    0.30572   1.00
C3       0.27036    0.41773    0.22026   1.00
H1       0.28671    0.40343    0.19739   1.00
C2       0.25142    0.39561    0.24975   1.00
C5       0.34461    0.52121    0.26597   1.00
H2       0.35521    0.55162    0.26141   1.00
H2       0.34059    0.50734    0.23679   1.00
C5       0.37547    0.49878    0.28857   1.00
H2       0.36441    0.46871    0.29409   1.00
H2       0.37950    0.51309    0.31750   1.00
C5       0.41412    0.49746    0.26604   1.00
H2       0.42519    0.52740    0.26019   1.00
H2       0.41042    0.48197    0.23774   1.00
H2       0.43655    0.48170    0.28339   1.00
C5       0.26663    0.48895    0.16041   1.00
C5       0.22927    0.38930    0.33994   1.00
H2       0.24307    0.50912    0.16996   1.00
H2       0.25303    0.46288    0.14643   1.00
H2       0.23942    0.41700    0.35372   1.00
H2       0.25569    0.37105    0.33401   1.00
H2       0.22626    0.30945    0.37968   1.00
H2       0.25224    0.55750    0.11352   1.00
H2       0.24537    0.51234    0.08655   1.00
C2       0.25253    0.60395    0.24957   1.00
C3       0.22105    0.58403    0.23199   1.00
O2       0.19642    0.60326    0.20660   1.00
C3       0.28167    0.58174    0.26862   1.00
H1       0.30561    0.59615    0.28322   1.00
C3a      0.21988    0.54287    0.23292   1.00
H1       0.19677    0.52798    0.21743   1.00
C3b      0.28108    0.54078    0.26841   1.00
C4       0.25008    0.52100    0.25041   1.00
O_3      0.29088    0.47833    0.19194   1.00
C5       0.16111    0.61280    0.22549   1.00
H2       0.14591    0.58609    0.23634   1.00
C5       0.13530    0.63334    0.19538   1.00
H2       0.16637    0.63274    0.25065   1.00
H2       0.12170    0.61077    0.17637   1.00
H2       0.15479    0.65101    0.17628   1.00
C5       0.10370    0.65931    0.21414   1.00
H2       0.08650    0.64189    0.23541   1.00
H2       0.08354    0.67109    0.19155   1.00
H2       0.11687    0.68506    0.22925   1.00
C5       0.29198    0.50980    0.13047   1.00
H2       0.31111    0.48782    0.11608   1.00
H2       0.31150    0.53045    0.14627   1.00
C5       0.26739    0.53197    0.10010   1.00
H2       0.28655    0.54334    0.07654   1.00
C5       0.36730    0.70130    -0.13227   1.00
H2       0.34791    0.68031    -0.14755   1.00
H2       0.38434    0.68375    -0.11099   1.00
C5       0.39489    0.72087    -0.16219   1.00
H2       0.42017    0.70161    -0.16890   1.00
H2       0.40589    0.74907    -0.15040   1.00
O_3      0.28790    0.80975    0.02000   1.00
C4       0.24966    0.74971    -0.02100   1.00
C3c      0.27881    0.73047    -0.04243   1.00
H1       0.30182    0.71514    -0.02725   1.00
C3d      0.21962    0.76904    -0.04135   1.00
C3       0.27911    0.73111    -0.08354   1.00
O2       0.30572    0.70774    -0.10248   1.00
C3       0.22026    0.77036    -0.08227   1.00
H1       0.19739    0.78671    -0.09657   1.00
C2       0.24975    0.75142    -0.10439   1.00
C5       0.26597    0.84461    0.02121   1.00
H2       0.26141    0.85521    0.05162   1.00
H2       0.23679    0.84059    0.00734   1.00
C5       0.28857    0.87547    -0.00122   1.00
H2       0.29409    0.86441    -0.03129   1.00
H2       0.31750    0.87950    0.01309   1.00
C5       0.26604    0.91412    -0.00254   1.00
H2       0.26019    0.92519    0.02740   1.00
H2       0.23774    0.91042    -0.01803   1.00
H2       0.28339    0.93655    -0.01830   1.00
C5       0.16041    0.76663    -0.01105   1.00
C5       0.33994    0.72927    -0.11070   1.00
H2       0.16996    0.74307    0.00912   1.00
H2       0.14643    0.75303    -0.03712   1.00
H2       0.35372    0.73942    -0.08300   1.00
H2       0.33401    0.75569    -0.12895   1.00
H2       0.37968    0.72626    -0.19055   1.00
H2       0.11352    0.75224    0.05750   1.00
H2       0.08655    0.74537    0.01234   1.00
C2       0.24957    0.75253    0.10395   1.00
C3       0.23199    0.72105    0.08403   1.00
O2       0.20660    0.69642    0.10326   1.00
C3       0.26862    0.78167    0.08174   1.00
H1       0.28322    0.80561    0.09615   1.00
C3a      0.23292    0.71988    0.04287   1.00
H1       0.21743    0.69677    0.02798   1.00
C3b      0.26841    0.78108    0.04078   1.00
C4       0.25041    0.75008    0.02100   1.00
O_3      0.19194    0.79088    -0.02167   1.00
C5       0.22549    0.66111    0.11280   1.00
H2       0.23634    0.64591    0.08609   1.00
C5       0.19538    0.63530    0.13334   1.00
H2       0.25065    0.66637    0.13274   1.00
H2       0.17637    0.62170    0.11077   1.00
H2       0.17628    0.65479    0.15101   1.00
C5       0.21414    0.60370    0.15931   1.00
H2       0.23541    0.58650    0.14189   1.00
H2       0.19155    0.58354    0.17109   1.00
H2       0.22925    0.61687    0.18506   1.00
C5       0.13047    0.79198    0.00980   1.00
H2       0.11608    0.81111    -0.01218   1.00
H2       0.14627    0.81150    0.03045   1.00
C5       0.10010    0.76739    0.03197   1.00
H2       0.07654    0.78655    0.04334   1.00
C5       0.86730    0.29870    0.63227   1.00
H2       0.84791    0.31969    0.64755   1.00
H2       0.88434    0.31625    0.61099   1.00
C5       0.89489    0.27913    0.66219   1.00
H2       0.92017    0.29839    0.66890   1.00
H2       0.90589    0.25093    0.65040   1.00
O_3      0.78790    0.19025    0.48000   1.00
C4       0.74966    0.25029    0.52100   1.00
C3c      0.77881    0.26953    0.54243   1.00
H1       0.80182    0.28486    0.52725   1.00
C3d      0.71962    0.23096    0.54135   1.00
C3       0.77911    0.26889    0.58354   1.00
O2       0.80572    0.29226    0.60248   1.00
C3       0.72026    0.22964    0.58227   1.00
H1       0.69739    0.21329    0.59657   1.00
C2       0.74975    0.24858    0.60439   1.00
C5       0.76597    0.15539    0.47879   1.00
H2       0.76141    0.14479    0.44838   1.00
H2       0.73679    0.15941    0.49266   1.00
C5       0.78857    0.12453    0.50122   1.00
H2       0.79409    0.13559    0.53129   1.00
H2       0.81750    0.12050    0.48691   1.00
C5       0.76604    0.08588    0.50254   1.00
H2       0.76019    0.07481    0.47260   1.00
H2       0.73774    0.08958    0.51803   1.00
H2       0.78339    0.06345    0.51830   1.00
C5       0.66041    0.23337    0.51105   1.00
C5       0.83994    0.27073    0.61070   1.00
H2       0.66996    0.25693    0.49088   1.00
H2       0.64643    0.24697    0.53712   1.00
H2       0.85372    0.26058    0.58300   1.00
H2       0.83401    0.24431    0.62895   1.00
H2       0.87968    0.27374    0.69055   1.00
H2       0.61352    0.24776    0.44250   1.00
H2       0.58655    0.25463    0.48766   1.00
C2       0.74957    0.24747    0.39605   1.00
C3       0.73199    0.27895    0.41597   1.00
O2       0.70660    0.30358    0.39674   1.00
C3       0.76862    0.21833    0.41826   1.00
H1       0.78322    0.19439    0.40385   1.00
C3a      0.73292    0.28012    0.45713   1.00
H1       0.71743    0.30323    0.47202   1.00
C3b      0.76841    0.21892    0.45922   1.00
C4       0.75041    0.24992    0.47900   1.00
O_3      0.69194    0.20912    0.52167   1.00
C5       0.72549    0.33889    0.38720   1.00
H2       0.73634    0.35409    0.41391   1.00
C5       0.69538    0.36470    0.36666   1.00
H2       0.75065    0.33363    0.36726   1.00
H2       0.67637    0.37830    0.38923   1.00
H2       0.67628    0.34521    0.34899   1.00
C5       0.71414    0.39630    0.34069   1.00
H2       0.73541    0.41350    0.35811   1.00
H2       0.69155    0.41646    0.32891   1.00
H2       0.72925    0.38313    0.31494   1.00
C5       0.63047    0.20802    0.49020   1.00
H2       0.61608    0.18889    0.51218   1.00
H2       0.64627    0.18850    0.46955   1.00
C5       0.60010    0.23261    0.46803   1.00
H2       0.57654    0.21345    0.45666   1.00
C5       0.79870    0.63227    0.36730   1.00
H2       0.81969    0.64755    0.34791   1.00
H2       0.81625    0.61099    0.38434   1.00
C5       0.77913    0.66219    0.39489   1.00
H2       0.79839    0.66890    0.42017   1.00
H2       0.75093    0.65040    0.40589   1.00
O_3      0.69025    0.48000    0.28790   1.00
C4       0.75029    0.52100    0.24966   1.00
C3c      0.76953    0.54243    0.27881   1.00
H1       0.78486    0.52725    0.30182   1.00
C3d      0.73096    0.54135    0.21962   1.00
C3       0.76889    0.58354    0.27911   1.00
O2       0.79226    0.60248    0.30572   1.00
C3       0.72964    0.58227    0.22026   1.00
H1       0.71329    0.59657    0.19739   1.00
C2       0.74858    0.60439    0.24975   1.00
C5       0.65539    0.47879    0.26597   1.00
H2       0.64479    0.44838    0.26141   1.00
H2       0.65941    0.49266    0.23679   1.00
C5       0.62453    0.50122    0.28857   1.00
H2       0.63559    0.53129    0.29409   1.00
H2       0.62050    0.48691    0.31750   1.00
C5       0.58588    0.50254    0.26604   1.00
H2       0.57481    0.47260    0.26019   1.00
H2       0.58958    0.51803    0.23774   1.00
H2       0.56345    0.51830    0.28339   1.00
C5       0.73337    0.51105    0.16041   1.00
C5       0.77073    0.61070    0.33994   1.00
H2       0.75693    0.49088    0.16996   1.00
H2       0.74697    0.53712    0.14643   1.00
H2       0.76058    0.58300    0.35372   1.00
H2       0.74431    0.62895    0.33401   1.00
H2       0.77374    0.69055    0.37968   1.00
H2       0.74776    0.44250    0.11352   1.00
H2       0.75463    0.48766    0.08655   1.00
C2       0.74747    0.39605    0.24957   1.00
C3       0.77895    0.41597    0.23199   1.00
O2       0.80358    0.39674    0.20660   1.00
C3       0.71833    0.41826    0.26862   1.00
H1       0.69439    0.40385    0.28322   1.00
C3a      0.78012    0.45713    0.23292   1.00
H1       0.80323    0.47202    0.21743   1.00
C3b      0.71892    0.45922    0.26841   1.00
C4       0.74992    0.47900    0.25041   1.00
O_3      0.70912    0.52167    0.19194   1.00
C5       0.83889    0.38720    0.22549   1.00
H2       0.85409    0.41391    0.23634   1.00
C5       0.86470    0.36666    0.19538   1.00
H2       0.83363    0.36726    0.25065   1.00
H2       0.87830    0.38923    0.17637   1.00
H2       0.84521    0.34899    0.17628   1.00
C5       0.89630    0.34069    0.21414   1.00
H2       0.91350    0.35811    0.23541   1.00
H2       0.91646    0.32891    0.19155   1.00
H2       0.88313    0.31494    0.22925   1.00
C5       0.70802    0.49020    0.13047   1.00
H2       0.68889    0.51218    0.11608   1.00
H2       0.68850    0.46955    0.14627   1.00
C5       0.73261    0.46803    0.10010   1.00
H2       0.71345    0.45666    0.07654   1.00
C5       0.36773    0.36730    0.20130   1.00
H2       0.35245    0.34791    0.18031   1.00
H2       0.38901    0.38434    0.18375   1.00
C5       0.33781    0.39489    0.22087   1.00
H2       0.33110    0.42017    0.20161   1.00
H2       0.34960    0.40589    0.24907   1.00
O_3      0.52000    0.28790    0.30975   1.00
C4       0.47900    0.24966    0.24971   1.00
C3c      0.45757    0.27881    0.23047   1.00
H1       0.47275    0.30182    0.21514   1.00
C3d      0.45865    0.21962    0.26904   1.00
C3       0.41646    0.27911    0.23111   1.00
O2       0.39752    0.30572    0.20774   1.00
C3       0.41773    0.22026    0.27036   1.00
H1       0.40343    0.19739    0.28671   1.00
C2       0.39561    0.24975    0.25142   1.00
C5       0.52121    0.26597    0.34461   1.00
H2       0.55162    0.26141    0.35521   1.00
H2       0.50734    0.23679    0.34059   1.00
C5       0.49878    0.28857    0.37547   1.00
H2       0.46871    0.29409    0.36441   1.00
H2       0.51309    0.31750    0.37950   1.00
C5       0.49746    0.26604    0.41412   1.00
H2       0.52740    0.26019    0.42519   1.00
H2       0.48197    0.23774    0.41042   1.00
H2       0.48170    0.28339    0.43655   1.00
C5       0.48895    0.16041    0.26663   1.00
C5       0.38930    0.33994    0.22927   1.00
H2       0.50912    0.16996    0.24307   1.00
H2       0.46288    0.14643    0.25303   1.00
H2       0.41700    0.35372    0.23942   1.00
H2       0.37105    0.33401    0.25569   1.00
H2       0.30945    0.37968    0.22626   1.00
H2       0.55750    0.11352    0.25224   1.00
H2       0.51234    0.08655    0.24537   1.00
C2       0.60395    0.24957    0.25253   1.00
C3       0.58403    0.23199    0.22105   1.00
O2       0.60326    0.20660    0.19642   1.00
C3       0.58174    0.26862    0.28167   1.00
H1       0.59615    0.28322    0.30561   1.00
C3a      0.54287    0.23292    0.21988   1.00
H1       0.52798    0.21743    0.19677   1.00
C3b      0.54078    0.26841    0.28108   1.00
C4       0.52100    0.25041    0.25008   1.00
O_3      0.47833    0.19194    0.29088   1.00
C5       0.61280    0.22549    0.16111   1.00
H2       0.58609    0.23634    0.14591   1.00
C5       0.63334    0.19538    0.13530   1.00
H2       0.63274    0.25065    0.16637   1.00
H2       0.61077    0.17637    0.12170   1.00
H2       0.65101    0.17628    0.15479   1.00
C5       0.65931    0.21414    0.10370   1.00
H2       0.64189    0.23541    0.08650   1.00
H2       0.67109    0.19155    0.08354   1.00
H2       0.68506    0.22925    0.11687   1.00
C5       0.50980    0.13047    0.29198   1.00
H2       0.48782    0.11608    0.31111   1.00
H2       0.53045    0.14627    0.31150   1.00
C5       0.53197    0.10010    0.26739   1.00
H2       0.54334    0.07654    0.28655   1.00
C5       1.13227    0.36730    0.29870   1.00
H2       1.14755    0.34791    0.31969   1.00
H2       1.11099    0.38434    0.31625   1.00
C5       1.16219    0.39489    0.27913   1.00
H2       1.16890    0.42017    0.29839   1.00
H2       1.15040    0.40589    0.25093   1.00
O_3      0.98000    0.28790    0.19025   1.00
C4       1.02100    0.24966    0.25029   1.00
C3c      1.04243    0.27881    0.26953   1.00
H1       1.02725    0.30182    0.28486   1.00
C3d      1.04135    0.21962    0.23096   1.00
C3       1.08354    0.27911    0.26889   1.00
O2       1.10248    0.30572    0.29226   1.00
C3       1.08227    0.22026    0.22964   1.00
H1       1.09657    0.19739    0.21329   1.00
C2       1.10439    0.24975    0.24858   1.00
C5       0.97879    0.26597    0.15539   1.00
H2       0.94838    0.26141    0.14479   1.00
H2       0.99266    0.23679    0.15941   1.00
C5       1.00122    0.28857    0.12453   1.00
H2       1.03129    0.29409    0.13559   1.00
H2       0.98691    0.31750    0.12050   1.00
C5       1.00254    0.26604    0.08588   1.00
H2       0.97260    0.26019    0.07481   1.00
H2       1.01803    0.23774    0.08958   1.00
H2       1.01830    0.28339    0.06345   1.00
C5       1.01105    0.16041    0.23337   1.00
C5       1.11070    0.33994    0.27073   1.00
H2       0.99088    0.16996    0.25693   1.00
H2       1.03712    0.14643    0.24697   1.00
H2       1.08300    0.35372    0.26058   1.00
H2       1.12895    0.33401    0.24431   1.00
H2       1.19055    0.37968    0.27374   1.00
H2       0.94250    0.11352    0.24776   1.00
H2       0.98766    0.08655    0.25463   1.00
C2       0.89605    0.24957    0.24747   1.00
C3       0.91597    0.23199    0.27895   1.00
O2       0.89674    0.20660    0.30358   1.00
C3       0.91826    0.26862    0.21833   1.00
H1       0.90385    0.28322    0.19439   1.00
C3a      0.95713    0.23292    0.28012   1.00
H1       0.97202    0.21743    0.30323   1.00
C3b      0.95922    0.26841    0.21892   1.00
C4       0.97900    0.25041    0.24992   1.00
O_3      1.02167    0.19194    0.20912   1.00
C5       0.88720    0.22549    0.33889   1.00
H2       0.91391    0.23634    0.35409   1.00
C5       0.86666    0.19538    0.36470   1.00
H2       0.86726    0.25065    0.33363   1.00
H2       0.88923    0.17637    0.37830   1.00
H2       0.84899    0.17628    0.34521   1.00
C5       0.84069    0.21414    0.39630   1.00
H2       0.85811    0.23541    0.41350   1.00
H2       0.82891    0.19155    0.41646   1.00
H2       0.81494    0.22925    0.38313   1.00
C5       0.99020    0.13047    0.20802   1.00
H2       1.01218    0.11608    0.18889   1.00
H2       0.96955    0.14627    0.18850   1.00
C5       0.96803    0.10010    0.23261   1.00
H2       0.95666    0.07654    0.21345   1.00
C5       0.70130    -0.13227   0.36730   1.00
H2       0.68031    -0.14755   0.34791   1.00
H2       0.68375    -0.11099   0.38434   1.00
C5       0.72087    -0.16219   0.39489   1.00
H2       0.70161    -0.16890   0.42017   1.00
H2       0.74907    -0.15040   0.40589   1.00
O_3      0.80975    0.02000    0.28790   1.00
C4       0.74971    -0.02100   0.24966   1.00
C3c      0.73047    -0.04243   0.27881   1.00
H1       0.71514    -0.02725   0.30182   1.00
C3d      0.76904    -0.04135   0.21962   1.00
C3       0.73111    -0.08354   0.27911   1.00
O2       0.70774    -0.10248   0.30572   1.00
C3       0.77036    -0.08227   0.22026   1.00
H1       0.78671    -0.09657   0.19739   1.00
C2       0.75142    -0.10439   0.24975   1.00
C5       0.84461    0.02121    0.26597   1.00
H2       0.85521    0.05162    0.26141   1.00
H2       0.84059    0.00734    0.23679   1.00
C5       0.87547    -0.00122   0.28857   1.00
H2       0.86441    -0.03129   0.29409   1.00
H2       0.87950    0.01309    0.31750   1.00
C5       0.91412    -0.00254   0.26604   1.00
H2       0.92519    0.02740    0.26019   1.00
H2       0.91042    -0.01803   0.23774   1.00
H2       0.93655    -0.01830   0.28339   1.00
C5       0.76663    -0.01105   0.16041   1.00
C5       0.72927    -0.11070   0.33994   1.00
H2       0.74307    0.00912    0.16996   1.00
H2       0.75303    -0.03712   0.14643   1.00
H2       0.73942    -0.08300   0.35372   1.00
H2       0.75569    -0.12895   0.33401   1.00
H2       0.72626    -0.19055   0.37968   1.00
H2       0.75224    0.05750    0.11352   1.00
H2       0.74537    0.01234    0.08655   1.00
C2       0.75253    0.10395    0.24957   1.00
C3       0.72105    0.08403    0.23199   1.00
O2       0.69642    0.10326    0.20660   1.00
C3       0.78167    0.08174    0.26862   1.00
H1       0.80561    0.09615    0.28322   1.00
C3a      0.71988    0.04287    0.23292   1.00
H1       0.69677    0.02798    0.21743   1.00
C3b      0.78108    0.04078    0.26841   1.00
C4       0.75008    0.02100    0.25041   1.00
O_3      0.79088    -0.02167   0.19194   1.00
C5       0.66111    0.11280    0.22549   1.00
H2       0.64591    0.08609    0.23634   1.00
C5       0.63530    0.13334    0.19538   1.00
H2       0.66637    0.13274    0.25065   1.00
H2       0.62170    0.11077    0.17637   1.00
H2       0.65479    0.15101    0.17628   1.00
C5       0.60370    0.15931    0.21414   1.00
H2       0.58650    0.14189    0.23541   1.00
H2       0.58354    0.17109    0.19155   1.00
H2       0.61687    0.18506    0.22925   1.00
C5       0.79198    0.00980    0.13047   1.00
H2       0.81111    -0.01218   0.11608   1.00
H2       0.81150    0.03045    0.14627   1.00
C5       0.76739    0.03197    0.10010   1.00
H2       0.78655    0.04334    0.07654   1.00
C5       0.86730    0.20130    -0.13227   1.00
H2       0.84791    0.18031    -0.14755   1.00
H2       0.88434    0.18375    -0.11099   1.00
C5       0.89489    0.22087    -0.16219   1.00
H2       0.92017    0.20161    -0.16890   1.00
H2       0.90589    0.24907    -0.15040   1.00
O_3      0.78790    0.30975    0.02000   1.00
C4       0.74966    0.24971    -0.02100   1.00
C3c      0.77881    0.23047    -0.04243   1.00
H1       0.80182    0.21514    -0.02725   1.00
C3d      0.71962    0.26904    -0.04135   1.00
C3       0.77911    0.23111    -0.08354   1.00
O2       0.80572    0.20774    -0.10248   1.00
C3       0.72026    0.27036    -0.08227   1.00
H1       0.69739    0.28671    -0.09657   1.00
C2       0.74975    0.25142    -0.10439   1.00
C5       0.76597    0.34461    0.02121   1.00
H2       0.76141    0.35521    0.05162   1.00
H2       0.73679    0.34059    0.00734   1.00
C5       0.78857    0.37547    -0.00122   1.00
H2       0.79409    0.36441    -0.03129   1.00
H2       0.81750    0.37950    0.01309   1.00
C5       0.76604    0.41412    -0.00254   1.00
H2       0.76019    0.42519    0.02740   1.00
H2       0.73774    0.41042    -0.01803   1.00
H2       0.78339    0.43655    -0.01830   1.00
C5       0.66041    0.26663    -0.01105   1.00
C5       0.83994    0.22927    -0.11070   1.00
H2       0.66996    0.24307    0.00912   1.00
H2       0.64643    0.25303    -0.03712   1.00
H2       0.85372    0.23942    -0.08300   1.00
H2       0.83401    0.25569    -0.12895   1.00
H2       0.87968    0.22626    -0.19055   1.00
H2       0.61352    0.25224    0.05750   1.00
H2       0.58655    0.24537    0.01234   1.00
C2       0.74957    0.25253    0.10395   1.00
C3       0.73199    0.22105    0.08403   1.00
O2       0.70660    0.19642    0.10326   1.00
C3       0.76862    0.28167    0.08174   1.00
H1       0.78322    0.30561    0.09615   1.00
C3a      0.73292    0.21988    0.04287   1.00
H1       0.71743    0.19677    0.02798   1.00
C3b      0.76841    0.28108    0.04078   1.00
C4       0.75041    0.25008    0.02100   1.00
O_3      0.69194    0.29088    -0.02167   1.00
C5       0.72549    0.16111    0.11280   1.00
H2       0.73634    0.14591    0.08609   1.00
C5       0.69538    0.13530    0.13334   1.00
H2       0.75065    0.16637    0.13274   1.00
H2       0.67637    0.12170    0.11077   1.00
H2       0.67628    0.15479    0.15101   1.00
C5       0.71414    0.10370    0.15931   1.00
H2       0.73541    0.08650    0.14189   1.00
H2       0.69155    0.08354    0.17109   1.00
H2       0.72925    0.11687    0.18506   1.00
C5       0.63047    0.29198    0.00980   1.00
H2       0.61608    0.31111    -0.01218   1.00
H2       0.64627    0.31150    0.03045   1.00
C5       0.60010    0.26739    0.03197   1.00
H2       0.57654    0.28655    0.04334   1.00
