data_IRMOF10_SG202_Ligand11_label_p.

_audit_creation_method             'generated by an auxiliary program of Tobunporous'

_symmetry_space_group_name_H-M     'P 1'
_symmetry_Int_Tables_number        1
_symmetry_cell_setting             triclinic

_cell_length_a                    34.2800
_cell_length_b                    34.2800
_cell_length_c                    34.2800
_cell_angle_alpha                 90.0000
_cell_angle_beta                  90.0000
_cell_angle_gamma                 90.0000

loop_
_atom_site_label
_atom_site_fract_x
_atom_site_fract_y
_atom_site_fract_z
_atom_site_occupancy
O1       0.75000    0.75000    0.75000   1.00
Zn1      0.71720    0.78280    0.78280   1.00
Zn1      0.78280    0.71720    0.78280   1.00
Zn1      0.78280    0.78280    0.71720   1.00
Zn1      0.71720    0.71720    0.71720   1.00
O2       0.72650    0.77350    0.83820   1.00
O2       0.72650    0.83820    0.77350   1.00
O2       0.66180    0.77350    0.77350   1.00
O2       0.77350    0.72650    0.83820   1.00
O2       0.83820    0.72650    0.77350   1.00
O2       0.77350    0.66180    0.77350   1.00
O2       0.77350    0.83820    0.72650   1.00
O2       0.83820    0.77350    0.72650   1.00
O2       0.77350    0.77350    0.66180   1.00
O2       0.66180    0.72650    0.72650   1.00
O2       0.72650    0.66180    0.72650   1.00
O2       0.72650    0.72650    0.66180   1.00
C1       0.75000    0.75000    0.85520   1.00
C1       0.75000    0.85520    0.75000   1.00
C1       0.64480    0.75000    0.75000   1.00
C1       0.85520    0.75000    0.75000   1.00
C1       0.75000    0.64480    0.75000   1.00
C1       0.75000    0.75000    0.64480   1.00
O1       0.25000    0.25000    0.75000   1.00
Zn1      0.21720    0.28280    0.78280   1.00
Zn1      0.28280    0.21720    0.78280   1.00
Zn1      0.28280    0.28280    0.71720   1.00
Zn1      0.21720    0.21720    0.71720   1.00
O2       0.22650    0.27350    0.83820   1.00
O2       0.22650    0.33820    0.77350   1.00
O2       0.16180    0.27350    0.77350   1.00
O2       0.27350    0.22650    0.83820   1.00
O2       0.33820    0.22650    0.77350   1.00
O2       0.27350    0.16180    0.77350   1.00
O2       0.27350    0.33820    0.72650   1.00
O2       0.33820    0.27350    0.72650   1.00
O2       0.27350    0.27350    0.66180   1.00
O2       0.16180    0.22650    0.72650   1.00
O2       0.22650    0.16180    0.72650   1.00
O2       0.22650    0.22650    0.66180   1.00
C1       0.25000    0.25000    0.85520   1.00
C1       0.25000    0.35520    0.75000   1.00
C1       0.14480    0.25000    0.75000   1.00
C1       0.35520    0.25000    0.75000   1.00
C1       0.25000    0.14480    0.75000   1.00
C1       0.25000    0.25000    0.64480   1.00
O1       0.25000    0.75000    0.25000   1.00
Zn1      0.21720    0.78280    0.28280   1.00
Zn1      0.28280    0.71720    0.28280   1.00
Zn1      0.28280    0.78280    0.21720   1.00
Zn1      0.21720    0.71720    0.21720   1.00
O2       0.22650    0.77350    0.33820   1.00
O2       0.22650    0.83820    0.27350   1.00
O2       0.16180    0.77350    0.27350   1.00
O2       0.27350    0.72650    0.33820   1.00
O2       0.33820    0.72650    0.27350   1.00
O2       0.27350    0.66180    0.27350   1.00
O2       0.27350    0.83820    0.22650   1.00
O2       0.33820    0.77350    0.22650   1.00
O2       0.27350    0.77350    0.16180   1.00
O2       0.16180    0.72650    0.22650   1.00
O2       0.22650    0.66180    0.22650   1.00
O2       0.22650    0.72650    0.16180   1.00
C1       0.25000    0.75000    0.35520   1.00
C1       0.25000    0.85520    0.25000   1.00
C1       0.14480    0.75000    0.25000   1.00
C1       0.35520    0.75000    0.25000   1.00
C1       0.25000    0.64480    0.25000   1.00
C1       0.25000    0.75000    0.14480   1.00
O1       0.75000    0.25000    0.25000   1.00
Zn1      0.71720    0.28280    0.28280   1.00
Zn1      0.78280    0.21720    0.28280   1.00
Zn1      0.78280    0.28280    0.21720   1.00
Zn1      0.71720    0.21720    0.21720   1.00
O2       0.72650    0.27350    0.33820   1.00
O2       0.72650    0.33820    0.27350   1.00
O2       0.66180    0.27350    0.27350   1.00
O2       0.77350    0.22650    0.33820   1.00
O2       0.83820    0.22650    0.27350   1.00
O2       0.77350    0.16180    0.27350   1.00
O2       0.77350    0.33820    0.22650   1.00
O2       0.83820    0.27350    0.22650   1.00
O2       0.77350    0.27350    0.16180   1.00
O2       0.66180    0.22650    0.22650   1.00
O2       0.72650    0.16180    0.22650   1.00
O2       0.72650    0.22650    0.16180   1.00
C1       0.75000    0.25000    0.35520   1.00
C1       0.75000    0.35520    0.25000   1.00
C1       0.64480    0.25000    0.25000   1.00
C1       0.85520    0.25000    0.25000   1.00
C1       0.75000    0.14480    0.25000   1.00
C1       0.75000    0.25000    0.14480   1.00
O1       0.25000    0.25000    0.25000   1.00
Zn1      0.28280    0.21720    0.21720   1.00
Zn1      0.21720    0.28280    0.21720   1.00
Zn1      0.21720    0.21720    0.28280   1.00
Zn1      0.28280    0.28280    0.28280   1.00
O2       0.27350    0.22650    0.16180   1.00
O2       0.27350    0.16180    0.22650   1.00
O2       0.33820    0.22650    0.22650   1.00
O2       0.22650    0.27350    0.16180   1.00
O2       0.16180    0.27350    0.22650   1.00
O2       0.22650    0.33820    0.22650   1.00
O2       0.22650    0.16180    0.27350   1.00
O2       0.16180    0.22650    0.27350   1.00
O2       0.22650    0.22650    0.33820   1.00
O2       0.33820    0.27350    0.27350   1.00
O2       0.27350    0.33820    0.27350   1.00
O2       0.27350    0.27350    0.33820   1.00
C1       0.25000    0.25000    0.14480   1.00
C1       0.25000    0.14480    0.25000   1.00
C1       0.35520    0.25000    0.25000   1.00
C1       0.14480    0.25000    0.25000   1.00
C1       0.25000    0.35520    0.25000   1.00
C1       0.25000    0.25000    0.35520   1.00
O1       0.75000    0.75000    0.25000   1.00
Zn1      0.78280    0.71720    0.21720   1.00
Zn1      0.71720    0.78280    0.21720   1.00
Zn1      0.71720    0.71720    0.28280   1.00
Zn1      0.78280    0.78280    0.28280   1.00
O2       0.77350    0.72650    0.16180   1.00
O2       0.77350    0.66180    0.22650   1.00
O2       0.83820    0.72650    0.22650   1.00
O2       0.72650    0.77350    0.16180   1.00
O2       0.66180    0.77350    0.22650   1.00
O2       0.72650    0.83820    0.22650   1.00
O2       0.72650    0.66180    0.27350   1.00
O2       0.66180    0.72650    0.27350   1.00
O2       0.72650    0.72650    0.33820   1.00
O2       0.83820    0.77350    0.27350   1.00
O2       0.77350    0.83820    0.27350   1.00
O2       0.77350    0.77350    0.33820   1.00
C1       0.75000    0.75000    0.14480   1.00
C1       0.75000    0.64480    0.25000   1.00
C1       0.85520    0.75000    0.25000   1.00
C1       0.64480    0.75000    0.25000   1.00
C1       0.75000    0.85520    0.25000   1.00
C1       0.75000    0.75000    0.35520   1.00
O1       0.75000    0.25000    0.75000   1.00
Zn1      0.78280    0.21720    0.71720   1.00
Zn1      0.71720    0.28280    0.71720   1.00
Zn1      0.71720    0.21720    0.78280   1.00
Zn1      0.78280    0.28280    0.78280   1.00
O2       0.77350    0.22650    0.66180   1.00
O2       0.77350    0.16180    0.72650   1.00
O2       0.83820    0.22650    0.72650   1.00
O2       0.72650    0.27350    0.66180   1.00
O2       0.66180    0.27350    0.72650   1.00
O2       0.72650    0.33820    0.72650   1.00
O2       0.72650    0.16180    0.77350   1.00
O2       0.66180    0.22650    0.77350   1.00
O2       0.72650    0.22650    0.83820   1.00
O2       0.83820    0.27350    0.77350   1.00
O2       0.77350    0.33820    0.77350   1.00
O2       0.77350    0.27350    0.83820   1.00
C1       0.75000    0.25000    0.64480   1.00
C1       0.75000    0.14480    0.75000   1.00
C1       0.85520    0.25000    0.75000   1.00
C1       0.64480    0.25000    0.75000   1.00
C1       0.75000    0.35520    0.75000   1.00
C1       0.75000    0.25000    0.85520   1.00
O1       0.25000    0.75000    0.75000   1.00
Zn1      0.28280    0.71720    0.71720   1.00
Zn1      0.21720    0.78280    0.71720   1.00
Zn1      0.21720    0.71720    0.78280   1.00
Zn1      0.28280    0.78280    0.78280   1.00
O2       0.27350    0.72650    0.66180   1.00
O2       0.27350    0.66180    0.72650   1.00
O2       0.33820    0.72650    0.72650   1.00
O2       0.22650    0.77350    0.66180   1.00
O2       0.16180    0.77350    0.72650   1.00
O2       0.22650    0.83820    0.72650   1.00
O2       0.22650    0.66180    0.77350   1.00
O2       0.16180    0.72650    0.77350   1.00
O2       0.22650    0.72650    0.83820   1.00
O2       0.33820    0.77350    0.77350   1.00
O2       0.27350    0.83820    0.77350   1.00
O2       0.27350    0.77350    0.83820   1.00
C1       0.25000    0.75000    0.64480   1.00
C1       0.25000    0.64480    0.75000   1.00
C1       0.35520    0.75000    0.75000   1.00
C1       0.14480    0.75000    0.75000   1.00
C1       0.25000    0.85520    0.75000   1.00
C1       0.25000    0.75000    0.85520   1.00
C4       0.74984    0.74988    0.97915   1.00
C4       0.75016    0.75012    1.02085   1.00
C3a      0.74132    0.71534    0.95746   1.00
C3       0.71510    0.75229    1.04232   1.00
C3       0.75788    0.78408    0.95768   1.00
C3a      0.78569    0.74830    1.04254   1.00
C2       0.74995    0.75006    0.89488   1.00
C2       0.74995    0.75007    1.10512   1.00
C3       0.74159    0.71596    0.91595   1.00
C3       0.71504    0.75215    1.08363   1.00
C3       0.75804    0.78409    0.91637   1.00
C3       0.78502    0.74823    1.08405   1.00
C5       0.73242    0.67713    0.97772   1.00
H1       0.68754    0.75371    1.02691   1.00
H1       0.73529    0.68959    0.89979   1.00
H1       0.68750    0.75363    1.09901   1.00
H1       0.76458    0.81088    0.90099   1.00
H1       0.81209    0.74664    1.10021   1.00
C5       0.82485    0.74579    1.02228   1.00
H1       0.76448    0.81087    0.97309   1.00
H2       0.84696    0.73355    1.04256   1.00
H2       0.82323    0.72520    0.99731   1.00
H2       0.73775    0.65242    0.95744   1.00
H2       0.75260    0.67273    1.00269   1.00
N1       0.83749    0.78421    1.00857   1.00
C6       0.84700    0.81484    1.03073   1.00
C6       0.84279    0.79501    0.97154   1.00
C6       0.85802    0.84578    1.00759   1.00
C6       0.85535    0.83316    0.96995   1.00
H3       0.84571    0.81497    1.06197   1.00
H3       0.83756    0.77642    0.94700   1.00
H3       0.86702    0.87432    1.01713   1.00
H3       0.86181    0.84992    0.94425   1.00
N1       0.69199    0.67612    0.99143   1.00
C6       0.68011    0.67416    1.02846   1.00
C6       0.65991    0.67586    0.96927   1.00
C6       0.63996    0.67315    1.03005   1.00
C6       0.62711    0.67424    0.99241   1.00
H3       0.69942    0.67380    1.05300   1.00
H3       0.66016    0.67712    0.93803   1.00
H3       0.62205    0.67180    1.05575   1.00
H3       0.59718    0.67386    0.98287   1.00
C4       0.74988    0.97915    0.74984   1.00
C4       0.75012    1.02085    0.75016   1.00
C3a      0.71534    0.95746    0.74132   1.00
C3       0.75229    1.04232    0.71510   1.00
C3       0.78408    0.95768    0.75788   1.00
C3a      0.74830    1.04254    0.78569   1.00
C2       0.75006    0.89488    0.74995   1.00
C2       0.75007    1.10512    0.74995   1.00
C3       0.71596    0.91595    0.74159   1.00
C3       0.75215    1.08363    0.71504   1.00
C3       0.78409    0.91637    0.75804   1.00
C3       0.74823    1.08405    0.78502   1.00
C5       0.67713    0.97772    0.73242   1.00
H1       0.75371    1.02691    0.68754   1.00
H1       0.68959    0.89979    0.73529   1.00
H1       0.75363    1.09901    0.68750   1.00
H1       0.81088    0.90099    0.76458   1.00
H1       0.74664    1.10021    0.81209   1.00
C5       0.74579    1.02228    0.82485   1.00
H1       0.81087    0.97309    0.76448   1.00
H2       0.73355    1.04256    0.84696   1.00
H2       0.72520    0.99731    0.82323   1.00
H2       0.65242    0.95744    0.73775   1.00
H2       0.67273    1.00269    0.75260   1.00
N1       0.78421    1.00857    0.83749   1.00
C6       0.81484    1.03073    0.84700   1.00
C6       0.79501    0.97154    0.84279   1.00
C6       0.84578    1.00759    0.85802   1.00
C6       0.83316    0.96995    0.85535   1.00
H3       0.81497    1.06197    0.84571   1.00
H3       0.77642    0.94700    0.83756   1.00
H3       0.87432    1.01713    0.86702   1.00
H3       0.84992    0.94425    0.86181   1.00
N1       0.67612    0.99143    0.69199   1.00
C6       0.67416    1.02846    0.68011   1.00
C6       0.67586    0.96927    0.65991   1.00
C6       0.67315    1.03005    0.63996   1.00
C6       0.67424    0.99241    0.62711   1.00
H3       0.67380    1.05300    0.69942   1.00
H3       0.67712    0.93803    0.66016   1.00
H3       0.67180    1.05575    0.62205   1.00
H3       0.67386    0.98287    0.59718   1.00
C4       0.52085    0.74984    0.75012   1.00
C4       0.47915    0.75016    0.74988   1.00
C3a      0.54254    0.74132    0.78466   1.00
C3       0.45768    0.71510    0.74771   1.00
C3       0.54232    0.75788    0.71592   1.00
C3a      0.45746    0.78569    0.75170   1.00
C2       0.60512    0.74995    0.74994   1.00
C2       0.39488    0.74995    0.74993   1.00
C3       0.58405    0.74159    0.78404   1.00
C3       0.41637    0.71504    0.74785   1.00
C3       0.58363    0.75804    0.71591   1.00
C3       0.41595    0.78502    0.75177   1.00
C5       0.52228    0.73242    0.82287   1.00
H1       0.47309    0.68754    0.74629   1.00
H1       0.60021    0.73529    0.81041   1.00
H1       0.40099    0.68750    0.74637   1.00
H1       0.59901    0.76458    0.68912   1.00
H1       0.39979    0.81209    0.75336   1.00
C5       0.47772    0.82485    0.75421   1.00
H1       0.52691    0.76448    0.68913   1.00
H2       0.45744    0.84696    0.76645   1.00
H2       0.50269    0.82323    0.77480   1.00
H2       0.54256    0.73775    0.84758   1.00
H2       0.49731    0.75260    0.82727   1.00
N1       0.49143    0.83749    0.71579   1.00
C6       0.46927    0.84700    0.68516   1.00
C6       0.52846    0.84279    0.70499   1.00
C6       0.49241    0.85802    0.65422   1.00
C6       0.53005    0.85535    0.66684   1.00
H3       0.43803    0.84571    0.68503   1.00
H3       0.55300    0.83756    0.72358   1.00
H3       0.48287    0.86702    0.62568   1.00
H3       0.55575    0.86181    0.65008   1.00
N1       0.50857    0.69199    0.82388   1.00
C6       0.47154    0.68011    0.82584   1.00
C6       0.53073    0.65991    0.82414   1.00
C6       0.46995    0.63996    0.82685   1.00
C6       0.50759    0.62711    0.82576   1.00
H3       0.44700    0.69942    0.82620   1.00
H3       0.56197    0.66016    0.82288   1.00
H3       0.44425    0.62205    0.82820   1.00
H3       0.51713    0.59718    0.82614   1.00
C4       0.97915    0.74984    0.74988   1.00
C4       1.02085    0.75016    0.75012   1.00
C3a      0.95746    0.74132    0.71534   1.00
C3       1.04232    0.71510    0.75229   1.00
C3       0.95768    0.75788    0.78408   1.00
C3a      1.04254    0.78569    0.74830   1.00
C2       0.89488    0.74995    0.75006   1.00
C2       1.10512    0.74995    0.75007   1.00
C3       0.91595    0.74159    0.71596   1.00
C3       1.08363    0.71504    0.75215   1.00
C3       0.91637    0.75804    0.78409   1.00
C3       1.08405    0.78502    0.74823   1.00
C5       0.97772    0.73242    0.67713   1.00
H1       1.02691    0.68754    0.75371   1.00
H1       0.89979    0.73529    0.68959   1.00
H1       1.09901    0.68750    0.75363   1.00
H1       0.90099    0.76458    0.81088   1.00
H1       1.10021    0.81209    0.74664   1.00
C5       1.02228    0.82485    0.74579   1.00
H1       0.97309    0.76448    0.81087   1.00
H2       1.04256    0.84696    0.73355   1.00
H2       0.99731    0.82323    0.72520   1.00
H2       0.95744    0.73775    0.65242   1.00
H2       1.00269    0.75260    0.67273   1.00
N1       1.00857    0.83749    0.78421   1.00
C6       1.03073    0.84700    0.81484   1.00
C6       0.97154    0.84279    0.79501   1.00
C6       1.00759    0.85802    0.84578   1.00
C6       0.96995    0.85535    0.83316   1.00
H3       1.06197    0.84571    0.81497   1.00
H3       0.94700    0.83756    0.77642   1.00
H3       1.01713    0.86702    0.87432   1.00
H3       0.94425    0.86181    0.84992   1.00
N1       0.99143    0.69199    0.67612   1.00
C6       1.02846    0.68011    0.67416   1.00
C6       0.96927    0.65991    0.67586   1.00
C6       1.03005    0.63996    0.67315   1.00
C6       0.99241    0.62711    0.67424   1.00
H3       1.05300    0.69942    0.67380   1.00
H3       0.93803    0.66016    0.67712   1.00
H3       1.05575    0.62205    0.67180   1.00
H3       0.98287    0.59718    0.67386   1.00
C4       0.75012    0.52085    0.74984   1.00
C4       0.74988    0.47915    0.75016   1.00
C3a      0.78466    0.54254    0.74132   1.00
C3       0.74771    0.45768    0.71510   1.00
C3       0.71592    0.54232    0.75788   1.00
C3a      0.75170    0.45746    0.78569   1.00
C2       0.74994    0.60512    0.74995   1.00
C2       0.74993    0.39488    0.74995   1.00
C3       0.78404    0.58405    0.74159   1.00
C3       0.74785    0.41637    0.71504   1.00
C3       0.71591    0.58363    0.75804   1.00
C3       0.75177    0.41595    0.78502   1.00
C5       0.82287    0.52228    0.73242   1.00
H1       0.74629    0.47309    0.68754   1.00
H1       0.81041    0.60021    0.73529   1.00
H1       0.74637    0.40099    0.68750   1.00
H1       0.68912    0.59901    0.76458   1.00
H1       0.75336    0.39979    0.81209   1.00
C5       0.75421    0.47772    0.82485   1.00
H1       0.68913    0.52691    0.76448   1.00
H2       0.76645    0.45744    0.84696   1.00
H2       0.77480    0.50269    0.82323   1.00
H2       0.84758    0.54256    0.73775   1.00
H2       0.82727    0.49731    0.75260   1.00
N1       0.71579    0.49143    0.83749   1.00
C6       0.68516    0.46927    0.84700   1.00
C6       0.70499    0.52846    0.84279   1.00
C6       0.65422    0.49241    0.85802   1.00
C6       0.66684    0.53005    0.85535   1.00
H3       0.68503    0.43803    0.84571   1.00
H3       0.72358    0.55300    0.83756   1.00
H3       0.62568    0.48287    0.86702   1.00
H3       0.65008    0.55575    0.86181   1.00
N1       0.82388    0.50857    0.69199   1.00
C6       0.82584    0.47154    0.68011   1.00
C6       0.82414    0.53073    0.65991   1.00
C6       0.82685    0.46995    0.63996   1.00
C6       0.82576    0.50759    0.62711   1.00
H3       0.82620    0.44700    0.69942   1.00
H3       0.82288    0.56197    0.66016   1.00
H3       0.82820    0.44425    0.62205   1.00
H3       0.82614    0.51713    0.59718   1.00
C4       0.74984    0.75012    0.52085   1.00
C4       0.75016    0.74988    0.47915   1.00
C3a      0.74132    0.78466    0.54254   1.00
C3       0.71510    0.74771    0.45768   1.00
C3       0.75788    0.71592    0.54232   1.00
C3a      0.78569    0.75170    0.45746   1.00
C2       0.74995    0.74994    0.60512   1.00
C2       0.74995    0.74993    0.39488   1.00
C3       0.74159    0.78404    0.58405   1.00
C3       0.71504    0.74785    0.41637   1.00
C3       0.75804    0.71591    0.58363   1.00
C3       0.78502    0.75177    0.41595   1.00
C5       0.73242    0.82287    0.52228   1.00
H1       0.68754    0.74629    0.47309   1.00
H1       0.73529    0.81041    0.60021   1.00
H1       0.68750    0.74637    0.40099   1.00
H1       0.76458    0.68912    0.59901   1.00
H1       0.81209    0.75336    0.39979   1.00
C5       0.82485    0.75421    0.47772   1.00
H1       0.76448    0.68913    0.52691   1.00
H2       0.84696    0.76645    0.45744   1.00
H2       0.82323    0.77480    0.50269   1.00
H2       0.73775    0.84758    0.54256   1.00
H2       0.75260    0.82727    0.49731   1.00
N1       0.83749    0.71579    0.49143   1.00
C6       0.84700    0.68516    0.46927   1.00
C6       0.84279    0.70499    0.52846   1.00
C6       0.85802    0.65422    0.49241   1.00
C6       0.85535    0.66684    0.53005   1.00
H3       0.84571    0.68503    0.43803   1.00
H3       0.83756    0.72358    0.55300   1.00
H3       0.86702    0.62568    0.48287   1.00
H3       0.86181    0.65008    0.55575   1.00
N1       0.69199    0.82388    0.50857   1.00
C6       0.68011    0.82584    0.47154   1.00
C6       0.65991    0.82414    0.53073   1.00
C6       0.63996    0.82685    0.46995   1.00
C6       0.62711    0.82576    0.50759   1.00
H3       0.69942    0.82620    0.44700   1.00
H3       0.66016    0.82288    0.56197   1.00
H3       0.62205    0.82820    0.44425   1.00
H3       0.59718    0.82614    0.51713   1.00
C4       0.24984    0.24988    0.97915   1.00
C4       0.25016    0.25012    1.02085   1.00
C3a      0.24132    0.21534    0.95746   1.00
C3       0.21510    0.25229    1.04232   1.00
C3       0.25788    0.28408    0.95768   1.00
C3a      0.28569    0.24830    1.04254   1.00
C2       0.24995    0.25006    0.89488   1.00
C2       0.24995    0.25007    1.10512   1.00
C3       0.24159    0.21596    0.91595   1.00
C3       0.21504    0.25215    1.08363   1.00
C3       0.25804    0.28409    0.91637   1.00
C3       0.28502    0.24823    1.08405   1.00
C5       0.23242    0.17713    0.97772   1.00
H1       0.18754    0.25371    1.02691   1.00
H1       0.23529    0.18959    0.89979   1.00
H1       0.18750    0.25363    1.09901   1.00
H1       0.26458    0.31088    0.90099   1.00
H1       0.31209    0.24664    1.10021   1.00
C5       0.32485    0.24579    1.02228   1.00
H1       0.26448    0.31087    0.97309   1.00
H2       0.34696    0.23355    1.04256   1.00
H2       0.32323    0.22520    0.99731   1.00
H2       0.23775    0.15242    0.95744   1.00
H2       0.25260    0.17273    1.00269   1.00
N1       0.33749    0.28421    1.00857   1.00
C6       0.34700    0.31484    1.03073   1.00
C6       0.34279    0.29501    0.97154   1.00
C6       0.35802    0.34578    1.00759   1.00
C6       0.35535    0.33316    0.96995   1.00
H3       0.34571    0.31497    1.06197   1.00
H3       0.33756    0.27642    0.94700   1.00
H3       0.36702    0.37432    1.01713   1.00
H3       0.36181    0.34992    0.94425   1.00
N1       0.19199    0.17612    0.99143   1.00
C6       0.18011    0.17416    1.02846   1.00
C6       0.15991    0.17586    0.96927   1.00
C6       0.13996    0.17315    1.03005   1.00
C6       0.12711    0.17424    0.99241   1.00
H3       0.19942    0.17380    1.05300   1.00
H3       0.16016    0.17712    0.93803   1.00
H3       0.12205    0.17180    1.05575   1.00
H3       0.09718    0.17386    0.98287   1.00
C4       0.24988    0.47915    0.74984   1.00
C4       0.25012    0.52085    0.75016   1.00
C3a      0.21534    0.45746    0.74132   1.00
C3       0.25229    0.54232    0.71510   1.00
C3       0.28408    0.45768    0.75788   1.00
C3a      0.24830    0.54254    0.78569   1.00
C2       0.25006    0.39488    0.74995   1.00
C2       0.25007    0.60512    0.74995   1.00
C3       0.21596    0.41595    0.74159   1.00
C3       0.25215    0.58363    0.71504   1.00
C3       0.28409    0.41637    0.75804   1.00
C3       0.24823    0.58405    0.78502   1.00
C5       0.17713    0.47772    0.73242   1.00
H1       0.25371    0.52691    0.68754   1.00
H1       0.18959    0.39979    0.73529   1.00
H1       0.25363    0.59901    0.68750   1.00
H1       0.31088    0.40099    0.76458   1.00
H1       0.24664    0.60021    0.81209   1.00
C5       0.24579    0.52228    0.82485   1.00
H1       0.31087    0.47309    0.76448   1.00
H2       0.23355    0.54256    0.84696   1.00
H2       0.22520    0.49731    0.82323   1.00
H2       0.15242    0.45744    0.73775   1.00
H2       0.17273    0.50269    0.75260   1.00
N1       0.28421    0.50857    0.83749   1.00
C6       0.31484    0.53073    0.84700   1.00
C6       0.29501    0.47154    0.84279   1.00
C6       0.34578    0.50759    0.85802   1.00
C6       0.33316    0.46995    0.85535   1.00
H3       0.31497    0.56197    0.84571   1.00
H3       0.27642    0.44700    0.83756   1.00
H3       0.37432    0.51713    0.86702   1.00
H3       0.34992    0.44425    0.86181   1.00
N1       0.17612    0.49143    0.69199   1.00
C6       0.17416    0.52846    0.68011   1.00
C6       0.17586    0.46927    0.65991   1.00
C6       0.17315    0.53005    0.63996   1.00
C6       0.17424    0.49241    0.62711   1.00
H3       0.17380    0.55300    0.69942   1.00
H3       0.17712    0.43803    0.66016   1.00
H3       0.17180    0.55575    0.62205   1.00
H3       0.17386    0.48287    0.59718   1.00
C4       0.02085    0.24984    0.75012   1.00
C4       -0.02085   0.25016    0.74988   1.00
C3a      0.04254    0.24132    0.78466   1.00
C3       -0.04232   0.21510    0.74771   1.00
C3       0.04232    0.25788    0.71592   1.00
C3a      -0.04254   0.28569    0.75170   1.00
C2       0.10512    0.24995    0.74994   1.00
C2       -0.10512   0.24995    0.74993   1.00
C3       0.08405    0.24159    0.78404   1.00
C3       -0.08363   0.21504    0.74785   1.00
C3       0.08363    0.25804    0.71591   1.00
C3       -0.08405   0.28502    0.75177   1.00
C5       0.02228    0.23242    0.82287   1.00
H1       -0.02691   0.18754    0.74629   1.00
H1       0.10021    0.23529    0.81041   1.00
H1       -0.09901   0.18750    0.74637   1.00
H1       0.09901    0.26458    0.68912   1.00
H1       -0.10021   0.31209    0.75336   1.00
C5       -0.02228   0.32485    0.75421   1.00
H1       0.02691    0.26448    0.68913   1.00
H2       -0.04256   0.34696    0.76645   1.00
H2       0.00269    0.32323    0.77480   1.00
H2       0.04256    0.23775    0.84758   1.00
H2       -0.00269   0.25260    0.82727   1.00
N1       -0.00857   0.33749    0.71579   1.00
C6       -0.03073   0.34700    0.68516   1.00
C6       0.02846    0.34279    0.70499   1.00
C6       -0.00759   0.35802    0.65422   1.00
C6       0.03005    0.35535    0.66684   1.00
H3       -0.06197   0.34571    0.68503   1.00
H3       0.05300    0.33756    0.72358   1.00
H3       -0.01713   0.36702    0.62568   1.00
H3       0.05575    0.36181    0.65008   1.00
N1       0.00857    0.19199    0.82388   1.00
C6       -0.02846   0.18011    0.82584   1.00
C6       0.03073    0.15991    0.82414   1.00
C6       -0.03005   0.13996    0.82685   1.00
C6       0.00759    0.12711    0.82576   1.00
H3       -0.05300   0.19942    0.82620   1.00
H3       0.06197    0.16016    0.82288   1.00
H3       -0.05575   0.12205    0.82820   1.00
H3       0.01713    0.09718    0.82614   1.00
C4       0.47915    0.24984    0.74988   1.00
C4       0.52085    0.25016    0.75012   1.00
C3a      0.45746    0.24132    0.71534   1.00
C3       0.54232    0.21510    0.75229   1.00
C3       0.45768    0.25788    0.78408   1.00
C3a      0.54254    0.28569    0.74830   1.00
C2       0.39488    0.24995    0.75006   1.00
C2       0.60512    0.24995    0.75007   1.00
C3       0.41595    0.24159    0.71596   1.00
C3       0.58363    0.21504    0.75215   1.00
C3       0.41637    0.25804    0.78409   1.00
C3       0.58405    0.28502    0.74823   1.00
C5       0.47772    0.23242    0.67713   1.00
H1       0.52691    0.18754    0.75371   1.00
H1       0.39979    0.23529    0.68959   1.00
H1       0.59901    0.18750    0.75363   1.00
H1       0.40099    0.26458    0.81088   1.00
H1       0.60021    0.31209    0.74664   1.00
C5       0.52228    0.32485    0.74579   1.00
H1       0.47309    0.26448    0.81087   1.00
H2       0.54256    0.34696    0.73355   1.00
H2       0.49731    0.32323    0.72520   1.00
H2       0.45744    0.23775    0.65242   1.00
H2       0.50269    0.25260    0.67273   1.00
N1       0.50857    0.33749    0.78421   1.00
C6       0.53073    0.34700    0.81484   1.00
C6       0.47154    0.34279    0.79501   1.00
C6       0.50759    0.35802    0.84578   1.00
C6       0.46995    0.35535    0.83316   1.00
H3       0.56197    0.34571    0.81497   1.00
H3       0.44700    0.33756    0.77642   1.00
H3       0.51713    0.36702    0.87432   1.00
H3       0.44425    0.36181    0.84992   1.00
N1       0.49143    0.19199    0.67612   1.00
C6       0.52846    0.18011    0.67416   1.00
C6       0.46927    0.15991    0.67586   1.00
C6       0.53005    0.13996    0.67315   1.00
C6       0.49241    0.12711    0.67424   1.00
H3       0.55300    0.19942    0.67380   1.00
H3       0.43803    0.16016    0.67712   1.00
H3       0.55575    0.12205    0.67180   1.00
H3       0.48287    0.09718    0.67386   1.00
C4       0.25012    0.02085    0.74984   1.00
C4       0.24988    -0.02085   0.75016   1.00
C3a      0.28466    0.04254    0.74132   1.00
C3       0.24771    -0.04232   0.71510   1.00
C3       0.21592    0.04232    0.75788   1.00
C3a      0.25170    -0.04254   0.78569   1.00
C2       0.24994    0.10512    0.74995   1.00
C2       0.24993    -0.10512   0.74995   1.00
C3       0.28404    0.08405    0.74159   1.00
C3       0.24785    -0.08363   0.71504   1.00
C3       0.21591    0.08363    0.75804   1.00
C3       0.25177    -0.08405   0.78502   1.00
C5       0.32287    0.02228    0.73242   1.00
H1       0.24629    -0.02691   0.68754   1.00
H1       0.31041    0.10021    0.73529   1.00
H1       0.24637    -0.09901   0.68750   1.00
H1       0.18912    0.09901    0.76458   1.00
H1       0.25336    -0.10021   0.81209   1.00
C5       0.25421    -0.02228   0.82485   1.00
H1       0.18913    0.02691    0.76448   1.00
H2       0.26645    -0.04256   0.84696   1.00
H2       0.27480    0.00269    0.82323   1.00
H2       0.34758    0.04256    0.73775   1.00
H2       0.32727    -0.00269   0.75260   1.00
N1       0.21579    -0.00857   0.83749   1.00
C6       0.18516    -0.03073   0.84700   1.00
C6       0.20499    0.02846    0.84279   1.00
C6       0.15422    -0.00759   0.85802   1.00
C6       0.16684    0.03005    0.85535   1.00
H3       0.18503    -0.06197   0.84571   1.00
H3       0.22358    0.05300    0.83756   1.00
H3       0.12568    -0.01713   0.86702   1.00
H3       0.15008    0.05575    0.86181   1.00
N1       0.32388    0.00857    0.69199   1.00
C6       0.32584    -0.02846   0.68011   1.00
C6       0.32414    0.03073    0.65991   1.00
C6       0.32685    -0.03005   0.63996   1.00
C6       0.32576    0.00759    0.62711   1.00
H3       0.32620    -0.05300   0.69942   1.00
H3       0.32288    0.06197    0.66016   1.00
H3       0.32820    -0.05575   0.62205   1.00
H3       0.32614    0.01713    0.59718   1.00
C4       0.24984    0.25012    0.52085   1.00
C4       0.25016    0.24988    0.47915   1.00
C3a      0.24132    0.28466    0.54254   1.00
C3       0.21510    0.24771    0.45768   1.00
C3       0.25788    0.21592    0.54232   1.00
C3a      0.28569    0.25170    0.45746   1.00
C2       0.24995    0.24994    0.60512   1.00
C2       0.24995    0.24993    0.39488   1.00
C3       0.24159    0.28404    0.58405   1.00
C3       0.21504    0.24785    0.41637   1.00
C3       0.25804    0.21591    0.58363   1.00
C3       0.28502    0.25177    0.41595   1.00
C5       0.23242    0.32287    0.52228   1.00
H1       0.18754    0.24629    0.47309   1.00
H1       0.23529    0.31041    0.60021   1.00
H1       0.18750    0.24637    0.40099   1.00
H1       0.26458    0.18912    0.59901   1.00
H1       0.31209    0.25336    0.39979   1.00
C5       0.32485    0.25421    0.47772   1.00
H1       0.26448    0.18913    0.52691   1.00
H2       0.34696    0.26645    0.45744   1.00
H2       0.32323    0.27480    0.50269   1.00
H2       0.23775    0.34758    0.54256   1.00
H2       0.25260    0.32727    0.49731   1.00
N1       0.33749    0.21579    0.49143   1.00
C6       0.34700    0.18516    0.46927   1.00
C6       0.34279    0.20499    0.52846   1.00
C6       0.35802    0.15422    0.49241   1.00
C6       0.35535    0.16684    0.53005   1.00
H3       0.34571    0.18503    0.43803   1.00
H3       0.33756    0.22358    0.55300   1.00
H3       0.36702    0.12568    0.48287   1.00
H3       0.36181    0.15008    0.55575   1.00
N1       0.19199    0.32388    0.50857   1.00
C6       0.18011    0.32584    0.47154   1.00
C6       0.15991    0.32414    0.53073   1.00
C6       0.13996    0.32685    0.46995   1.00
C6       0.12711    0.32576    0.50759   1.00
H3       0.19942    0.32620    0.44700   1.00
H3       0.16016    0.32288    0.56197   1.00
H3       0.12205    0.32820    0.44425   1.00
H3       0.09718    0.32614    0.51713   1.00
C4       0.24984    0.74988    0.47915   1.00
C4       0.25016    0.75012    0.52085   1.00
C3a      0.24132    0.71534    0.45746   1.00
C3       0.21510    0.75229    0.54232   1.00
C3       0.25788    0.78408    0.45768   1.00
C3a      0.28569    0.74830    0.54254   1.00
C2       0.24995    0.75006    0.39488   1.00
C2       0.24995    0.75007    0.60512   1.00
C3       0.24159    0.71596    0.41595   1.00
C3       0.21504    0.75215    0.58363   1.00
C3       0.25804    0.78409    0.41637   1.00
C3       0.28502    0.74823    0.58405   1.00
C5       0.23242    0.67713    0.47772   1.00
H1       0.18754    0.75371    0.52691   1.00
H1       0.23529    0.68959    0.39979   1.00
H1       0.18750    0.75363    0.59901   1.00
H1       0.26458    0.81088    0.40099   1.00
H1       0.31209    0.74664    0.60021   1.00
C5       0.32485    0.74579    0.52228   1.00
H1       0.26448    0.81087    0.47309   1.00
H2       0.34696    0.73355    0.54256   1.00
H2       0.32323    0.72520    0.49731   1.00
H2       0.23775    0.65242    0.45744   1.00
H2       0.25260    0.67273    0.50269   1.00
N1       0.33749    0.78421    0.50857   1.00
C6       0.34700    0.81484    0.53073   1.00
C6       0.34279    0.79501    0.47154   1.00
C6       0.35802    0.84578    0.50759   1.00
C6       0.35535    0.83316    0.46995   1.00
H3       0.34571    0.81497    0.56197   1.00
H3       0.33756    0.77642    0.44700   1.00
H3       0.36702    0.87432    0.51713   1.00
H3       0.36181    0.84992    0.44425   1.00
N1       0.19199    0.67612    0.49143   1.00
C6       0.18011    0.67416    0.52846   1.00
C6       0.15991    0.67586    0.46927   1.00
C6       0.13996    0.67315    0.53005   1.00
C6       0.12711    0.67424    0.49241   1.00
H3       0.19942    0.67380    0.55300   1.00
H3       0.16016    0.67712    0.43803   1.00
H3       0.12205    0.67180    0.55575   1.00
H3       0.09718    0.67386    0.48287   1.00
C4       0.24988    0.97915    0.24984   1.00
C4       0.25012    1.02085    0.25016   1.00
C3a      0.21534    0.95746    0.24132   1.00
C3       0.25229    1.04232    0.21510   1.00
C3       0.28408    0.95768    0.25788   1.00
C3a      0.24830    1.04254    0.28569   1.00
C2       0.25006    0.89488    0.24995   1.00
C2       0.25007    1.10512    0.24995   1.00
C3       0.21596    0.91595    0.24159   1.00
C3       0.25215    1.08363    0.21504   1.00
C3       0.28409    0.91637    0.25804   1.00
C3       0.24823    1.08405    0.28502   1.00
C5       0.17713    0.97772    0.23242   1.00
H1       0.25371    1.02691    0.18754   1.00
H1       0.18959    0.89979    0.23529   1.00
H1       0.25363    1.09901    0.18750   1.00
H1       0.31088    0.90099    0.26458   1.00
H1       0.24664    1.10021    0.31209   1.00
C5       0.24579    1.02228    0.32485   1.00
H1       0.31087    0.97309    0.26448   1.00
H2       0.23355    1.04256    0.34696   1.00
H2       0.22520    0.99731    0.32323   1.00
H2       0.15242    0.95744    0.23775   1.00
H2       0.17273    1.00269    0.25260   1.00
N1       0.28421    1.00857    0.33749   1.00
C6       0.31484    1.03073    0.34700   1.00
C6       0.29501    0.97154    0.34279   1.00
C6       0.34578    1.00759    0.35802   1.00
C6       0.33316    0.96995    0.35535   1.00
H3       0.31497    1.06197    0.34571   1.00
H3       0.27642    0.94700    0.33756   1.00
H3       0.37432    1.01713    0.36702   1.00
H3       0.34992    0.94425    0.36181   1.00
N1       0.17612    0.99143    0.19199   1.00
C6       0.17416    1.02846    0.18011   1.00
C6       0.17586    0.96927    0.15991   1.00
C6       0.17315    1.03005    0.13996   1.00
C6       0.17424    0.99241    0.12711   1.00
H3       0.17380    1.05300    0.19942   1.00
H3       0.17712    0.93803    0.16016   1.00
H3       0.17180    1.05575    0.12205   1.00
H3       0.17386    0.98287    0.09718   1.00
C4       0.02085    0.74984    0.25012   1.00
C4       -0.02085   0.75016    0.24988   1.00
C3a      0.04254    0.74132    0.28466   1.00
C3       -0.04232   0.71510    0.24771   1.00
C3       0.04232    0.75788    0.21592   1.00
C3a      -0.04254   0.78569    0.25170   1.00
C2       0.10512    0.74995    0.24994   1.00
C2       -0.10512   0.74995    0.24993   1.00
C3       0.08405    0.74159    0.28404   1.00
C3       -0.08363   0.71504    0.24785   1.00
C3       0.08363    0.75804    0.21591   1.00
C3       -0.08405   0.78502    0.25177   1.00
C5       0.02228    0.73242    0.32287   1.00
H1       -0.02691   0.68754    0.24629   1.00
H1       0.10021    0.73529    0.31041   1.00
H1       -0.09901   0.68750    0.24637   1.00
H1       0.09901    0.76458    0.18912   1.00
H1       -0.10021   0.81209    0.25336   1.00
C5       -0.02228   0.82485    0.25421   1.00
H1       0.02691    0.76448    0.18913   1.00
H2       -0.04256   0.84696    0.26645   1.00
H2       0.00269    0.82323    0.27480   1.00
H2       0.04256    0.73775    0.34758   1.00
H2       -0.00269   0.75260    0.32727   1.00
N1       -0.00857   0.83749    0.21579   1.00
C6       -0.03073   0.84700    0.18516   1.00
C6       0.02846    0.84279    0.20499   1.00
C6       -0.00759   0.85802    0.15422   1.00
C6       0.03005    0.85535    0.16684   1.00
H3       -0.06197   0.84571    0.18503   1.00
H3       0.05300    0.83756    0.22358   1.00
H3       -0.01713   0.86702    0.12568   1.00
H3       0.05575    0.86181    0.15008   1.00
N1       0.00857    0.69199    0.32388   1.00
C6       -0.02846   0.68011    0.32584   1.00
C6       0.03073    0.65991    0.32414   1.00
C6       -0.03005   0.63996    0.32685   1.00
C6       0.00759    0.62711    0.32576   1.00
H3       -0.05300   0.69942    0.32620   1.00
H3       0.06197    0.66016    0.32288   1.00
H3       -0.05575   0.62205    0.32820   1.00
H3       0.01713    0.59718    0.32614   1.00
C4       0.47915    0.74984    0.24988   1.00
C4       0.52085    0.75016    0.25012   1.00
C3a      0.45746    0.74132    0.21534   1.00
C3       0.54232    0.71510    0.25229   1.00
C3       0.45768    0.75788    0.28408   1.00
C3a      0.54254    0.78569    0.24830   1.00
C2       0.39488    0.74995    0.25006   1.00
C2       0.60512    0.74995    0.25007   1.00
C3       0.41595    0.74159    0.21596   1.00
C3       0.58363    0.71504    0.25215   1.00
C3       0.41637    0.75804    0.28409   1.00
C3       0.58405    0.78502    0.24823   1.00
C5       0.47772    0.73242    0.17713   1.00
H1       0.52691    0.68754    0.25371   1.00
H1       0.39979    0.73529    0.18959   1.00
H1       0.59901    0.68750    0.25363   1.00
H1       0.40099    0.76458    0.31088   1.00
H1       0.60021    0.81209    0.24664   1.00
C5       0.52228    0.82485    0.24579   1.00
H1       0.47309    0.76448    0.31087   1.00
H2       0.54256    0.84696    0.23355   1.00
H2       0.49731    0.82323    0.22520   1.00
H2       0.45744    0.73775    0.15242   1.00
H2       0.50269    0.75260    0.17273   1.00
N1       0.50857    0.83749    0.28421   1.00
C6       0.53073    0.84700    0.31484   1.00
C6       0.47154    0.84279    0.29501   1.00
C6       0.50759    0.85802    0.34578   1.00
C6       0.46995    0.85535    0.33316   1.00
H3       0.56197    0.84571    0.31497   1.00
H3       0.44700    0.83756    0.27642   1.00
H3       0.51713    0.86702    0.37432   1.00
H3       0.44425    0.86181    0.34992   1.00
N1       0.49143    0.69199    0.17612   1.00
C6       0.52846    0.68011    0.17416   1.00
C6       0.46927    0.65991    0.17586   1.00
C6       0.53005    0.63996    0.17315   1.00
C6       0.49241    0.62711    0.17424   1.00
H3       0.55300    0.69942    0.17380   1.00
H3       0.43803    0.66016    0.17712   1.00
H3       0.55575    0.62205    0.17180   1.00
H3       0.48287    0.59718    0.17386   1.00
C4       0.25012    0.52085    0.24984   1.00
C4       0.24988    0.47915    0.25016   1.00
C3a      0.28466    0.54254    0.24132   1.00
C3       0.24771    0.45768    0.21510   1.00
C3       0.21592    0.54232    0.25788   1.00
C3a      0.25170    0.45746    0.28569   1.00
C2       0.24994    0.60512    0.24995   1.00
C2       0.24993    0.39488    0.24995   1.00
C3       0.28404    0.58405    0.24159   1.00
C3       0.24785    0.41637    0.21504   1.00
C3       0.21591    0.58363    0.25804   1.00
C3       0.25177    0.41595    0.28502   1.00
C5       0.32287    0.52228    0.23242   1.00
H1       0.24629    0.47309    0.18754   1.00
H1       0.31041    0.60021    0.23529   1.00
H1       0.24637    0.40099    0.18750   1.00
H1       0.18912    0.59901    0.26458   1.00
H1       0.25336    0.39979    0.31209   1.00
C5       0.25421    0.47772    0.32485   1.00
H1       0.18913    0.52691    0.26448   1.00
H2       0.26645    0.45744    0.34696   1.00
H2       0.27480    0.50269    0.32323   1.00
H2       0.34758    0.54256    0.23775   1.00
H2       0.32727    0.49731    0.25260   1.00
N1       0.21579    0.49143    0.33749   1.00
C6       0.18516    0.46927    0.34700   1.00
C6       0.20499    0.52846    0.34279   1.00
C6       0.15422    0.49241    0.35802   1.00
C6       0.16684    0.53005    0.35535   1.00
H3       0.18503    0.43803    0.34571   1.00
H3       0.22358    0.55300    0.33756   1.00
H3       0.12568    0.48287    0.36702   1.00
H3       0.15008    0.55575    0.36181   1.00
N1       0.32388    0.50857    0.19199   1.00
C6       0.32584    0.47154    0.18011   1.00
C6       0.32414    0.53073    0.15991   1.00
C6       0.32685    0.46995    0.13996   1.00
C6       0.32576    0.50759    0.12711   1.00
H3       0.32620    0.44700    0.19942   1.00
H3       0.32288    0.56197    0.16016   1.00
H3       0.32820    0.44425    0.12205   1.00
H3       0.32614    0.51713    0.09718   1.00
C4       0.24984    0.75012    0.02085   1.00
C4       0.25016    0.74988    -0.02085   1.00
C3a      0.24132    0.78466    0.04254   1.00
C3       0.21510    0.74771    -0.04232   1.00
C3       0.25788    0.71592    0.04232   1.00
C3a      0.28569    0.75170    -0.04254   1.00
C2       0.24995    0.74994    0.10512   1.00
C2       0.24995    0.74993    -0.10512   1.00
C3       0.24159    0.78404    0.08405   1.00
C3       0.21504    0.74785    -0.08363   1.00
C3       0.25804    0.71591    0.08363   1.00
C3       0.28502    0.75177    -0.08405   1.00
C5       0.23242    0.82287    0.02228   1.00
H1       0.18754    0.74629    -0.02691   1.00
H1       0.23529    0.81041    0.10021   1.00
H1       0.18750    0.74637    -0.09901   1.00
H1       0.26458    0.68912    0.09901   1.00
H1       0.31209    0.75336    -0.10021   1.00
C5       0.32485    0.75421    -0.02228   1.00
H1       0.26448    0.68913    0.02691   1.00
H2       0.34696    0.76645    -0.04256   1.00
H2       0.32323    0.77480    0.00269   1.00
H2       0.23775    0.84758    0.04256   1.00
H2       0.25260    0.82727    -0.00269   1.00
N1       0.33749    0.71579    -0.00857   1.00
C6       0.34700    0.68516    -0.03073   1.00
C6       0.34279    0.70499    0.02846   1.00
C6       0.35802    0.65422    -0.00759   1.00
C6       0.35535    0.66684    0.03005   1.00
H3       0.34571    0.68503    -0.06197   1.00
H3       0.33756    0.72358    0.05300   1.00
H3       0.36702    0.62568    -0.01713   1.00
H3       0.36181    0.65008    0.05575   1.00
N1       0.19199    0.82388    0.00857   1.00
C6       0.18011    0.82584    -0.02846   1.00
C6       0.15991    0.82414    0.03073   1.00
C6       0.13996    0.82685    -0.03005   1.00
C6       0.12711    0.82576    0.00759   1.00
H3       0.19942    0.82620    -0.05300   1.00
H3       0.16016    0.82288    0.06197   1.00
H3       0.12205    0.82820    -0.05575   1.00
H3       0.09718    0.82614    0.01713   1.00
C4       0.74984    0.24988    0.47915   1.00
C4       0.75016    0.25012    0.52085   1.00
C3a      0.74132    0.21534    0.45746   1.00
C3       0.71510    0.25229    0.54232   1.00
C3       0.75788    0.28408    0.45768   1.00
C3a      0.78569    0.24830    0.54254   1.00
C2       0.74995    0.25006    0.39488   1.00
C2       0.74995    0.25007    0.60512   1.00
C3       0.74159    0.21596    0.41595   1.00
C3       0.71504    0.25215    0.58363   1.00
C3       0.75804    0.28409    0.41637   1.00
C3       0.78502    0.24823    0.58405   1.00
C5       0.73242    0.17713    0.47772   1.00
H1       0.68754    0.25371    0.52691   1.00
H1       0.73529    0.18959    0.39979   1.00
H1       0.68750    0.25363    0.59901   1.00
H1       0.76458    0.31088    0.40099   1.00
H1       0.81209    0.24664    0.60021   1.00
C5       0.82485    0.24579    0.52228   1.00
H1       0.76448    0.31087    0.47309   1.00
H2       0.84696    0.23355    0.54256   1.00
H2       0.82323    0.22520    0.49731   1.00
H2       0.73775    0.15242    0.45744   1.00
H2       0.75260    0.17273    0.50269   1.00
N1       0.83749    0.28421    0.50857   1.00
C6       0.84700    0.31484    0.53073   1.00
C6       0.84279    0.29501    0.47154   1.00
C6       0.85802    0.34578    0.50759   1.00
C6       0.85535    0.33316    0.46995   1.00
H3       0.84571    0.31497    0.56197   1.00
H3       0.83756    0.27642    0.44700   1.00
H3       0.86702    0.37432    0.51713   1.00
H3       0.86181    0.34992    0.44425   1.00
N1       0.69199    0.17612    0.49143   1.00
C6       0.68011    0.17416    0.52846   1.00
C6       0.65991    0.17586    0.46927   1.00
C6       0.63996    0.17315    0.53005   1.00
C6       0.62711    0.17424    0.49241   1.00
H3       0.69942    0.17380    0.55300   1.00
H3       0.66016    0.17712    0.43803   1.00
H3       0.62205    0.17180    0.55575   1.00
H3       0.59718    0.17386    0.48287   1.00
C4       0.74988    0.47915    0.24984   1.00
C4       0.75012    0.52085    0.25016   1.00
C3a      0.71534    0.45746    0.24132   1.00
C3       0.75229    0.54232    0.21510   1.00
C3       0.78408    0.45768    0.25788   1.00
C3a      0.74830    0.54254    0.28569   1.00
C2       0.75006    0.39488    0.24995   1.00
C2       0.75007    0.60512    0.24995   1.00
C3       0.71596    0.41595    0.24159   1.00
C3       0.75215    0.58363    0.21504   1.00
C3       0.78409    0.41637    0.25804   1.00
C3       0.74823    0.58405    0.28502   1.00
C5       0.67713    0.47772    0.23242   1.00
H1       0.75371    0.52691    0.18754   1.00
H1       0.68959    0.39979    0.23529   1.00
H1       0.75363    0.59901    0.18750   1.00
H1       0.81088    0.40099    0.26458   1.00
H1       0.74664    0.60021    0.31209   1.00
C5       0.74579    0.52228    0.32485   1.00
H1       0.81087    0.47309    0.26448   1.00
H2       0.73355    0.54256    0.34696   1.00
H2       0.72520    0.49731    0.32323   1.00
H2       0.65242    0.45744    0.23775   1.00
H2       0.67273    0.50269    0.25260   1.00
N1       0.78421    0.50857    0.33749   1.00
C6       0.81484    0.53073    0.34700   1.00
C6       0.79501    0.47154    0.34279   1.00
C6       0.84578    0.50759    0.35802   1.00
C6       0.83316    0.46995    0.35535   1.00
H3       0.81497    0.56197    0.34571   1.00
H3       0.77642    0.44700    0.33756   1.00
H3       0.87432    0.51713    0.36702   1.00
H3       0.84992    0.44425    0.36181   1.00
N1       0.67612    0.49143    0.19199   1.00
C6       0.67416    0.52846    0.18011   1.00
C6       0.67586    0.46927    0.15991   1.00
C6       0.67315    0.53005    0.13996   1.00
C6       0.67424    0.49241    0.12711   1.00
H3       0.67380    0.55300    0.19942   1.00
H3       0.67712    0.43803    0.16016   1.00
H3       0.67180    0.55575    0.12205   1.00
H3       0.67386    0.48287    0.09718   1.00
C4       0.52085    0.24984    0.25012   1.00
C4       0.47915    0.25016    0.24988   1.00
C3a      0.54254    0.24132    0.28466   1.00
C3       0.45768    0.21510    0.24771   1.00
C3       0.54232    0.25788    0.21592   1.00
C3a      0.45746    0.28569    0.25170   1.00
C2       0.60512    0.24995    0.24994   1.00
C2       0.39488    0.24995    0.24993   1.00
C3       0.58405    0.24159    0.28404   1.00
C3       0.41637    0.21504    0.24785   1.00
C3       0.58363    0.25804    0.21591   1.00
C3       0.41595    0.28502    0.25177   1.00
C5       0.52228    0.23242    0.32287   1.00
H1       0.47309    0.18754    0.24629   1.00
H1       0.60021    0.23529    0.31041   1.00
H1       0.40099    0.18750    0.24637   1.00
H1       0.59901    0.26458    0.18912   1.00
H1       0.39979    0.31209    0.25336   1.00
C5       0.47772    0.32485    0.25421   1.00
H1       0.52691    0.26448    0.18913   1.00
H2       0.45744    0.34696    0.26645   1.00
H2       0.50269    0.32323    0.27480   1.00
H2       0.54256    0.23775    0.34758   1.00
H2       0.49731    0.25260    0.32727   1.00
N1       0.49143    0.33749    0.21579   1.00
C6       0.46927    0.34700    0.18516   1.00
C6       0.52846    0.34279    0.20499   1.00
C6       0.49241    0.35802    0.15422   1.00
C6       0.53005    0.35535    0.16684   1.00
H3       0.43803    0.34571    0.18503   1.00
H3       0.55300    0.33756    0.22358   1.00
H3       0.48287    0.36702    0.12568   1.00
H3       0.55575    0.36181    0.15008   1.00
N1       0.50857    0.19199    0.32388   1.00
C6       0.47154    0.18011    0.32584   1.00
C6       0.53073    0.15991    0.32414   1.00
C6       0.46995    0.13996    0.32685   1.00
C6       0.50759    0.12711    0.32576   1.00
H3       0.44700    0.19942    0.32620   1.00
H3       0.56197    0.16016    0.32288   1.00
H3       0.44425    0.12205    0.32820   1.00
H3       0.51713    0.09718    0.32614   1.00
C4       0.97915    0.24984    0.24988   1.00
C4       1.02085    0.25016    0.25012   1.00
C3a      0.95746    0.24132    0.21534   1.00
C3       1.04232    0.21510    0.25229   1.00
C3       0.95768    0.25788    0.28408   1.00
C3a      1.04254    0.28569    0.24830   1.00
C2       0.89488    0.24995    0.25006   1.00
C2       1.10512    0.24995    0.25007   1.00
C3       0.91595    0.24159    0.21596   1.00
C3       1.08363    0.21504    0.25215   1.00
C3       0.91637    0.25804    0.28409   1.00
C3       1.08405    0.28502    0.24823   1.00
C5       0.97772    0.23242    0.17713   1.00
H1       1.02691    0.18754    0.25371   1.00
H1       0.89979    0.23529    0.18959   1.00
H1       1.09901    0.18750    0.25363   1.00
H1       0.90099    0.26458    0.31088   1.00
H1       1.10021    0.31209    0.24664   1.00
C5       1.02228    0.32485    0.24579   1.00
H1       0.97309    0.26448    0.31087   1.00
H2       1.04256    0.34696    0.23355   1.00
H2       0.99731    0.32323    0.22520   1.00
H2       0.95744    0.23775    0.15242   1.00
H2       1.00269    0.25260    0.17273   1.00
N1       1.00857    0.33749    0.28421   1.00
C6       1.03073    0.34700    0.31484   1.00
C6       0.97154    0.34279    0.29501   1.00
C6       1.00759    0.35802    0.34578   1.00
C6       0.96995    0.35535    0.33316   1.00
H3       1.06197    0.34571    0.31497   1.00
H3       0.94700    0.33756    0.27642   1.00
H3       1.01713    0.36702    0.37432   1.00
H3       0.94425    0.36181    0.34992   1.00
N1       0.99143    0.19199    0.17612   1.00
C6       1.02846    0.18011    0.17416   1.00
C6       0.96927    0.15991    0.17586   1.00
C6       1.03005    0.13996    0.17315   1.00
C6       0.99241    0.12711    0.17424   1.00
H3       1.05300    0.19942    0.17380   1.00
H3       0.93803    0.16016    0.17712   1.00
H3       1.05575    0.12205    0.17180   1.00
H3       0.98287    0.09718    0.17386   1.00
C4       0.75012    0.02085    0.24984   1.00
C4       0.74988    -0.02085   0.25016   1.00
C3a      0.78466    0.04254    0.24132   1.00
C3       0.74771    -0.04232   0.21510   1.00
C3       0.71592    0.04232    0.25788   1.00
C3a      0.75170    -0.04254   0.28569   1.00
C2       0.74994    0.10512    0.24995   1.00
C2       0.74993    -0.10512   0.24995   1.00
C3       0.78404    0.08405    0.24159   1.00
C3       0.74785    -0.08363   0.21504   1.00
C3       0.71591    0.08363    0.25804   1.00
C3       0.75177    -0.08405   0.28502   1.00
C5       0.82287    0.02228    0.23242   1.00
H1       0.74629    -0.02691   0.18754   1.00
H1       0.81041    0.10021    0.23529   1.00
H1       0.74637    -0.09901   0.18750   1.00
H1       0.68912    0.09901    0.26458   1.00
H1       0.75336    -0.10021   0.31209   1.00
C5       0.75421    -0.02228   0.32485   1.00
H1       0.68913    0.02691    0.26448   1.00
H2       0.76645    -0.04256   0.34696   1.00
H2       0.77480    0.00269    0.32323   1.00
H2       0.84758    0.04256    0.23775   1.00
H2       0.82727    -0.00269   0.25260   1.00
N1       0.71579    -0.00857   0.33749   1.00
C6       0.68516    -0.03073   0.34700   1.00
C6       0.70499    0.02846    0.34279   1.00
C6       0.65422    -0.00759   0.35802   1.00
C6       0.66684    0.03005    0.35535   1.00
H3       0.68503    -0.06197   0.34571   1.00
H3       0.72358    0.05300    0.33756   1.00
H3       0.62568    -0.01713   0.36702   1.00
H3       0.65008    0.05575    0.36181   1.00
N1       0.82388    0.00857    0.19199   1.00
C6       0.82584    -0.02846   0.18011   1.00
C6       0.82414    0.03073    0.15991   1.00
C6       0.82685    -0.03005   0.13996   1.00
C6       0.82576    0.00759    0.12711   1.00
H3       0.82620    -0.05300   0.19942   1.00
H3       0.82288    0.06197    0.16016   1.00
H3       0.82820    -0.05575   0.12205   1.00
H3       0.82614    0.01713    0.09718   1.00
C4       0.74984    0.25012    0.02085   1.00
C4       0.75016    0.24988    -0.02085   1.00
C3a      0.74132    0.28466    0.04254   1.00
C3       0.71510    0.24771    -0.04232   1.00
C3       0.75788    0.21592    0.04232   1.00
C3a      0.78569    0.25170    -0.04254   1.00
C2       0.74995    0.24994    0.10512   1.00
C2       0.74995    0.24993    -0.10512   1.00
C3       0.74159    0.28404    0.08405   1.00
C3       0.71504    0.24785    -0.08363   1.00
C3       0.75804    0.21591    0.08363   1.00
C3       0.78502    0.25177    -0.08405   1.00
C5       0.73242    0.32287    0.02228   1.00
H1       0.68754    0.24629    -0.02691   1.00
H1       0.73529    0.31041    0.10021   1.00
H1       0.68750    0.24637    -0.09901   1.00
H1       0.76458    0.18912    0.09901   1.00
H1       0.81209    0.25336    -0.10021   1.00
C5       0.82485    0.25421    -0.02228   1.00
H1       0.76448    0.18913    0.02691   1.00
H2       0.84696    0.26645    -0.04256   1.00
H2       0.82323    0.27480    0.00269   1.00
H2       0.73775    0.34758    0.04256   1.00
H2       0.75260    0.32727    -0.00269   1.00
N1       0.83749    0.21579    -0.00857   1.00
C6       0.84700    0.18516    -0.03073   1.00
C6       0.84279    0.20499    0.02846   1.00
C6       0.85802    0.15422    -0.00759   1.00
C6       0.85535    0.16684    0.03005   1.00
H3       0.84571    0.18503    -0.06197   1.00
H3       0.83756    0.22358    0.05300   1.00
H3       0.86702    0.12568    -0.01713   1.00
H3       0.86181    0.15008    0.05575   1.00
N1       0.69199    0.32388    0.00857   1.00
C6       0.68011    0.32584    -0.02846   1.00
C6       0.65991    0.32414    0.03073   1.00
C6       0.63996    0.32685    -0.03005   1.00
C6       0.62711    0.32576    0.00759   1.00
H3       0.69942    0.32620    -0.05300   1.00
H3       0.66016    0.32288    0.06197   1.00
H3       0.62205    0.32820    -0.05575   1.00
H3       0.59718    0.32614    0.01713   1.00
