data_IRMOF10_SG202_Ligand10_label_b.

_audit_creation_method             'generated by an auxiliary program of Tobunporous'

_symmetry_space_group_name_H-M     'P 1'
_symmetry_Int_Tables_number        1
_symmetry_cell_setting             triclinic

_cell_length_a                    34.2800
_cell_length_b                    34.2800
_cell_length_c                    34.2800
_cell_angle_alpha                 90.0000
_cell_angle_beta                  90.0000
_cell_angle_gamma                 90.0000

loop_
_atom_site_label
_atom_site_fract_x
_atom_site_fract_y
_atom_site_fract_z
_atom_site_occupancy
O1       0.75000    0.75000    0.75000   1.00
Zn1      0.71720    0.78280    0.78280   1.00
Zn1      0.78280    0.71720    0.78280   1.00
Zn1      0.78280    0.78280    0.71720   1.00
Zn1      0.71720    0.71720    0.71720   1.00
O2       0.72650    0.77350    0.83820   1.00
O2       0.72650    0.83820    0.77350   1.00
O2       0.66180    0.77350    0.77350   1.00
O2       0.77350    0.72650    0.83820   1.00
O2       0.83820    0.72650    0.77350   1.00
O2       0.77350    0.66180    0.77350   1.00
O2       0.77350    0.83820    0.72650   1.00
O2       0.83820    0.77350    0.72650   1.00
O2       0.77350    0.77350    0.66180   1.00
O2       0.66180    0.72650    0.72650   1.00
O2       0.72650    0.66180    0.72650   1.00
O2       0.72650    0.72650    0.66180   1.00
C1       0.75000    0.75000    0.85520   1.00
C1       0.75000    0.85520    0.75000   1.00
C1       0.64480    0.75000    0.75000   1.00
C1       0.85520    0.75000    0.75000   1.00
C1       0.75000    0.64480    0.75000   1.00
C1       0.75000    0.75000    0.64480   1.00
O1       0.25000    0.25000    0.75000   1.00
Zn1      0.21720    0.28280    0.78280   1.00
Zn1      0.28280    0.21720    0.78280   1.00
Zn1      0.28280    0.28280    0.71720   1.00
Zn1      0.21720    0.21720    0.71720   1.00
O2       0.22650    0.27350    0.83820   1.00
O2       0.22650    0.33820    0.77350   1.00
O2       0.16180    0.27350    0.77350   1.00
O2       0.27350    0.22650    0.83820   1.00
O2       0.33820    0.22650    0.77350   1.00
O2       0.27350    0.16180    0.77350   1.00
O2       0.27350    0.33820    0.72650   1.00
O2       0.33820    0.27350    0.72650   1.00
O2       0.27350    0.27350    0.66180   1.00
O2       0.16180    0.22650    0.72650   1.00
O2       0.22650    0.16180    0.72650   1.00
O2       0.22650    0.22650    0.66180   1.00
C1       0.25000    0.25000    0.85520   1.00
C1       0.25000    0.35520    0.75000   1.00
C1       0.14480    0.25000    0.75000   1.00
C1       0.35520    0.25000    0.75000   1.00
C1       0.25000    0.14480    0.75000   1.00
C1       0.25000    0.25000    0.64480   1.00
O1       0.25000    0.75000    0.25000   1.00
Zn1      0.21720    0.78280    0.28280   1.00
Zn1      0.28280    0.71720    0.28280   1.00
Zn1      0.28280    0.78280    0.21720   1.00
Zn1      0.21720    0.71720    0.21720   1.00
O2       0.22650    0.77350    0.33820   1.00
O2       0.22650    0.83820    0.27350   1.00
O2       0.16180    0.77350    0.27350   1.00
O2       0.27350    0.72650    0.33820   1.00
O2       0.33820    0.72650    0.27350   1.00
O2       0.27350    0.66180    0.27350   1.00
O2       0.27350    0.83820    0.22650   1.00
O2       0.33820    0.77350    0.22650   1.00
O2       0.27350    0.77350    0.16180   1.00
O2       0.16180    0.72650    0.22650   1.00
O2       0.22650    0.66180    0.22650   1.00
O2       0.22650    0.72650    0.16180   1.00
C1       0.25000    0.75000    0.35520   1.00
C1       0.25000    0.85520    0.25000   1.00
C1       0.14480    0.75000    0.25000   1.00
C1       0.35520    0.75000    0.25000   1.00
C1       0.25000    0.64480    0.25000   1.00
C1       0.25000    0.75000    0.14480   1.00
O1       0.75000    0.25000    0.25000   1.00
Zn1      0.71720    0.28280    0.28280   1.00
Zn1      0.78280    0.21720    0.28280   1.00
Zn1      0.78280    0.28280    0.21720   1.00
Zn1      0.71720    0.21720    0.21720   1.00
O2       0.72650    0.27350    0.33820   1.00
O2       0.72650    0.33820    0.27350   1.00
O2       0.66180    0.27350    0.27350   1.00
O2       0.77350    0.22650    0.33820   1.00
O2       0.83820    0.22650    0.27350   1.00
O2       0.77350    0.16180    0.27350   1.00
O2       0.77350    0.33820    0.22650   1.00
O2       0.83820    0.27350    0.22650   1.00
O2       0.77350    0.27350    0.16180   1.00
O2       0.66180    0.22650    0.22650   1.00
O2       0.72650    0.16180    0.22650   1.00
O2       0.72650    0.22650    0.16180   1.00
C1       0.75000    0.25000    0.35520   1.00
C1       0.75000    0.35520    0.25000   1.00
C1       0.64480    0.25000    0.25000   1.00
C1       0.85520    0.25000    0.25000   1.00
C1       0.75000    0.14480    0.25000   1.00
C1       0.75000    0.25000    0.14480   1.00
O1       0.25000    0.25000    0.25000   1.00
Zn1      0.28280    0.21720    0.21720   1.00
Zn1      0.21720    0.28280    0.21720   1.00
Zn1      0.21720    0.21720    0.28280   1.00
Zn1      0.28280    0.28280    0.28280   1.00
O2       0.27350    0.22650    0.16180   1.00
O2       0.27350    0.16180    0.22650   1.00
O2       0.33820    0.22650    0.22650   1.00
O2       0.22650    0.27350    0.16180   1.00
O2       0.16180    0.27350    0.22650   1.00
O2       0.22650    0.33820    0.22650   1.00
O2       0.22650    0.16180    0.27350   1.00
O2       0.16180    0.22650    0.27350   1.00
O2       0.22650    0.22650    0.33820   1.00
O2       0.33820    0.27350    0.27350   1.00
O2       0.27350    0.33820    0.27350   1.00
O2       0.27350    0.27350    0.33820   1.00
C1       0.25000    0.25000    0.14480   1.00
C1       0.25000    0.14480    0.25000   1.00
C1       0.35520    0.25000    0.25000   1.00
C1       0.14480    0.25000    0.25000   1.00
C1       0.25000    0.35520    0.25000   1.00
C1       0.25000    0.25000    0.35520   1.00
O1       0.75000    0.75000    0.25000   1.00
Zn1      0.78280    0.71720    0.21720   1.00
Zn1      0.71720    0.78280    0.21720   1.00
Zn1      0.71720    0.71720    0.28280   1.00
Zn1      0.78280    0.78280    0.28280   1.00
O2       0.77350    0.72650    0.16180   1.00
O2       0.77350    0.66180    0.22650   1.00
O2       0.83820    0.72650    0.22650   1.00
O2       0.72650    0.77350    0.16180   1.00
O2       0.66180    0.77350    0.22650   1.00
O2       0.72650    0.83820    0.22650   1.00
O2       0.72650    0.66180    0.27350   1.00
O2       0.66180    0.72650    0.27350   1.00
O2       0.72650    0.72650    0.33820   1.00
O2       0.83820    0.77350    0.27350   1.00
O2       0.77350    0.83820    0.27350   1.00
O2       0.77350    0.77350    0.33820   1.00
C1       0.75000    0.75000    0.14480   1.00
C1       0.75000    0.64480    0.25000   1.00
C1       0.85520    0.75000    0.25000   1.00
C1       0.64480    0.75000    0.25000   1.00
C1       0.75000    0.85520    0.25000   1.00
C1       0.75000    0.75000    0.35520   1.00
O1       0.75000    0.25000    0.75000   1.00
Zn1      0.78280    0.21720    0.71720   1.00
Zn1      0.71720    0.28280    0.71720   1.00
Zn1      0.71720    0.21720    0.78280   1.00
Zn1      0.78280    0.28280    0.78280   1.00
O2       0.77350    0.22650    0.66180   1.00
O2       0.77350    0.16180    0.72650   1.00
O2       0.83820    0.22650    0.72650   1.00
O2       0.72650    0.27350    0.66180   1.00
O2       0.66180    0.27350    0.72650   1.00
O2       0.72650    0.33820    0.72650   1.00
O2       0.72650    0.16180    0.77350   1.00
O2       0.66180    0.22650    0.77350   1.00
O2       0.72650    0.22650    0.83820   1.00
O2       0.83820    0.27350    0.77350   1.00
O2       0.77350    0.33820    0.77350   1.00
O2       0.77350    0.27350    0.83820   1.00
C1       0.75000    0.25000    0.64480   1.00
C1       0.75000    0.14480    0.75000   1.00
C1       0.85520    0.25000    0.75000   1.00
C1       0.64480    0.25000    0.75000   1.00
C1       0.75000    0.35520    0.75000   1.00
C1       0.75000    0.25000    0.85520   1.00
O1       0.25000    0.75000    0.75000   1.00
Zn1      0.28280    0.71720    0.71720   1.00
Zn1      0.21720    0.78280    0.71720   1.00
Zn1      0.21720    0.71720    0.78280   1.00
Zn1      0.28280    0.78280    0.78280   1.00
O2       0.27350    0.72650    0.66180   1.00
O2       0.27350    0.66180    0.72650   1.00
O2       0.33820    0.72650    0.72650   1.00
O2       0.22650    0.77350    0.66180   1.00
O2       0.16180    0.77350    0.72650   1.00
O2       0.22650    0.83820    0.72650   1.00
O2       0.22650    0.66180    0.77350   1.00
O2       0.16180    0.72650    0.77350   1.00
O2       0.22650    0.72650    0.83820   1.00
O2       0.33820    0.77350    0.77350   1.00
O2       0.27350    0.83820    0.77350   1.00
O2       0.27350    0.77350    0.83820   1.00
C1       0.25000    0.75000    0.64480   1.00
C1       0.25000    0.64480    0.75000   1.00
C1       0.35520    0.75000    0.75000   1.00
C1       0.14480    0.75000    0.75000   1.00
C1       0.25000    0.85520    0.75000   1.00
C1       0.25000    0.75000    0.85520   1.00
C4       0.74987    0.75036    0.97915   1.00
C4       0.75013    0.74964    1.02085   1.00
C3       0.77602    0.77390    0.95751   1.00
C3       0.78526    0.75039    1.04252   1.00
C3       0.72385    0.72679    0.95738   1.00
C3       0.71502    0.74903    1.04259   1.00
C2       0.75015    0.75006    0.89482   1.00
C2       0.75015    0.75006    1.10518   1.00
C3a      0.77627    0.77387    0.91599   1.00
C3       0.78519    0.75058    1.08382   1.00
C3       0.72405    0.72668    0.91611   1.00
C3a      0.71482    0.74921    1.08403   1.00
H1       0.79619    0.79267    0.97294   1.00
H1       0.81305    0.75047    1.02750   1.00
C5       0.80443    0.79946    0.89410   1.00
H1       0.81271    0.75111    1.09933   1.00
H1       0.70388    0.70800    0.90056   1.00
C5       0.67643    0.74849    1.10535   1.00
H1       0.68731    0.74956    1.02747   1.00
H1       0.70366    0.70762    0.97230   1.00
H2       0.66124    0.72069    1.09837   1.00
H2       0.68090    0.74914    1.13747   1.00
N1       0.65233    0.78182    1.09395   1.00
C6       0.63794    0.78896    1.05810   1.00
C6       0.64016    0.81078    1.11757   1.00
C6       0.61646    0.82299    1.05873   1.00
C6       0.61788    0.83687    1.09656   1.00
H3       0.64265    0.77060    1.03281   1.00
H3       0.64715    0.81296    1.14831   1.00
H3       0.60139    0.83620    1.03436   1.00
H3       0.60419    0.86306    1.10758   1.00
H2       0.80035    0.79474    0.86228   1.00
H2       0.79875    0.83083    0.90001   1.00
N1       0.84450    0.79029    0.90523   1.00
C6       0.87483    0.77627    0.88078   1.00
C6       0.86150    0.79375    0.94285   1.00
C6       0.90825    0.77152    0.90277   1.00
C6       0.90006    0.78224    0.94091   1.00
H3       0.87192    0.77024    0.84992   1.00
H3       0.84627    0.80348    0.96876   1.00
H3       0.93604    0.76114    0.89205   1.00
H3       0.92035    0.78161    0.96505   1.00
C4       0.75036    0.97915    0.74987   1.00
C4       0.74964    1.02085    0.75013   1.00
C3       0.77390    0.95751    0.77602   1.00
C3       0.75039    1.04252    0.78526   1.00
C3       0.72679    0.95738    0.72385   1.00
C3       0.74903    1.04259    0.71502   1.00
C2       0.75006    0.89482    0.75015   1.00
C2       0.75006    1.10518    0.75015   1.00
C3a      0.77387    0.91599    0.77627   1.00
C3       0.75058    1.08382    0.78519   1.00
C3       0.72668    0.91611    0.72405   1.00
C3a      0.74921    1.08403    0.71482   1.00
H1       0.79267    0.97294    0.79619   1.00
H1       0.75047    1.02750    0.81305   1.00
C5       0.79946    0.89410    0.80443   1.00
H1       0.75111    1.09933    0.81271   1.00
H1       0.70800    0.90056    0.70388   1.00
C5       0.74849    1.10535    0.67643   1.00
H1       0.74956    1.02747    0.68731   1.00
H1       0.70762    0.97230    0.70366   1.00
H2       0.72069    1.09837    0.66124   1.00
H2       0.74914    1.13747    0.68090   1.00
N1       0.78182    1.09395    0.65233   1.00
C6       0.78896    1.05810    0.63794   1.00
C6       0.81078    1.11757    0.64016   1.00
C6       0.82299    1.05873    0.61646   1.00
C6       0.83687    1.09656    0.61788   1.00
H3       0.77060    1.03281    0.64265   1.00
H3       0.81296    1.14831    0.64715   1.00
H3       0.83620    1.03436    0.60139   1.00
H3       0.86306    1.10758    0.60419   1.00
H2       0.79474    0.86228    0.80035   1.00
H2       0.83083    0.90001    0.79875   1.00
N1       0.79029    0.90523    0.84450   1.00
C6       0.77627    0.88078    0.87483   1.00
C6       0.79375    0.94285    0.86150   1.00
C6       0.77152    0.90277    0.90825   1.00
C6       0.78224    0.94091    0.90006   1.00
H3       0.77024    0.84992    0.87192   1.00
H3       0.80348    0.96876    0.84627   1.00
H3       0.76114    0.89205    0.93604   1.00
H3       0.78161    0.96505    0.92035   1.00
C4       0.52085    0.74987    0.74964   1.00
C4       0.47915    0.75013    0.75036   1.00
C3       0.54249    0.77602    0.72610   1.00
C3       0.45748    0.78526    0.74961   1.00
C3       0.54262    0.72385    0.77321   1.00
C3       0.45741    0.71502    0.75097   1.00
C2       0.60518    0.75015    0.74994   1.00
C2       0.39482    0.75015    0.74994   1.00
C3a      0.58401    0.77627    0.72613   1.00
C3       0.41618    0.78519    0.74942   1.00
C3       0.58389    0.72405    0.77332   1.00
C3a      0.41597    0.71482    0.75079   1.00
H1       0.52706    0.79619    0.70733   1.00
H1       0.47250    0.81305    0.74953   1.00
C5       0.60590    0.80443    0.70054   1.00
H1       0.40067    0.81271    0.74889   1.00
H1       0.59944    0.70388    0.79200   1.00
C5       0.39465    0.67643    0.75151   1.00
H1       0.47253    0.68731    0.75044   1.00
H1       0.52770    0.70366    0.79238   1.00
H2       0.40163    0.66124    0.77931   1.00
H2       0.36253    0.68090    0.75086   1.00
N1       0.40605    0.65233    0.71818   1.00
C6       0.44190    0.63794    0.71104   1.00
C6       0.38243    0.64016    0.68922   1.00
C6       0.44127    0.61646    0.67701   1.00
C6       0.40344    0.61788    0.66313   1.00
H3       0.46719    0.64265    0.72940   1.00
H3       0.35169    0.64715    0.68704   1.00
H3       0.46564    0.60139    0.66380   1.00
H3       0.39242    0.60419    0.63694   1.00
H2       0.63772    0.80035    0.70526   1.00
H2       0.59999    0.79875    0.66917   1.00
N1       0.59477    0.84450    0.70971   1.00
C6       0.61922    0.87483    0.72373   1.00
C6       0.55715    0.86150    0.70625   1.00
C6       0.59723    0.90825    0.72848   1.00
C6       0.55909    0.90006    0.71776   1.00
H3       0.65008    0.87192    0.72976   1.00
H3       0.53124    0.84627    0.69652   1.00
H3       0.60795    0.93604    0.73886   1.00
H3       0.53495    0.92035    0.71839   1.00
C4       0.97915    0.74987    0.75036   1.00
C4       1.02085    0.75013    0.74964   1.00
C3       0.95751    0.77602    0.77390   1.00
C3       1.04252    0.78526    0.75039   1.00
C3       0.95738    0.72385    0.72679   1.00
C3       1.04259    0.71502    0.74903   1.00
C2       0.89482    0.75015    0.75006   1.00
C2       1.10518    0.75015    0.75006   1.00
C3a      0.91599    0.77627    0.77387   1.00
C3       1.08382    0.78519    0.75058   1.00
C3       0.91611    0.72405    0.72668   1.00
C3a      1.08403    0.71482    0.74921   1.00
H1       0.97294    0.79619    0.79267   1.00
H1       1.02750    0.81305    0.75047   1.00
C5       0.89410    0.80443    0.79946   1.00
H1       1.09933    0.81271    0.75111   1.00
H1       0.90056    0.70388    0.70800   1.00
C5       1.10535    0.67643    0.74849   1.00
H1       1.02747    0.68731    0.74956   1.00
H1       0.97230    0.70366    0.70762   1.00
H2       1.09837    0.66124    0.72069   1.00
H2       1.13747    0.68090    0.74914   1.00
N1       1.09395    0.65233    0.78182   1.00
C6       1.05810    0.63794    0.78896   1.00
C6       1.11757    0.64016    0.81078   1.00
C6       1.05873    0.61646    0.82299   1.00
C6       1.09656    0.61788    0.83687   1.00
H3       1.03281    0.64265    0.77060   1.00
H3       1.14831    0.64715    0.81296   1.00
H3       1.03436    0.60139    0.83620   1.00
H3       1.10758    0.60419    0.86306   1.00
H2       0.86228    0.80035    0.79474   1.00
H2       0.90001    0.79875    0.83083   1.00
N1       0.90523    0.84450    0.79029   1.00
C6       0.88078    0.87483    0.77627   1.00
C6       0.94285    0.86150    0.79375   1.00
C6       0.90277    0.90825    0.77152   1.00
C6       0.94091    0.90006    0.78224   1.00
H3       0.84992    0.87192    0.77024   1.00
H3       0.96876    0.84627    0.80348   1.00
H3       0.89205    0.93604    0.76114   1.00
H3       0.96505    0.92035    0.78161   1.00
C4       0.74964    0.52085    0.74987   1.00
C4       0.75036    0.47915    0.75013   1.00
C3       0.72610    0.54249    0.77602   1.00
C3       0.74961    0.45748    0.78526   1.00
C3       0.77321    0.54262    0.72385   1.00
C3       0.75097    0.45741    0.71502   1.00
C2       0.74994    0.60518    0.75015   1.00
C2       0.74994    0.39482    0.75015   1.00
C3a      0.72613    0.58401    0.77627   1.00
C3       0.74942    0.41618    0.78519   1.00
C3       0.77332    0.58389    0.72405   1.00
C3a      0.75079    0.41597    0.71482   1.00
H1       0.70733    0.52706    0.79619   1.00
H1       0.74953    0.47250    0.81305   1.00
C5       0.70054    0.60590    0.80443   1.00
H1       0.74889    0.40067    0.81271   1.00
H1       0.79200    0.59944    0.70388   1.00
C5       0.75151    0.39465    0.67643   1.00
H1       0.75044    0.47253    0.68731   1.00
H1       0.79238    0.52770    0.70366   1.00
H2       0.77931    0.40163    0.66124   1.00
H2       0.75086    0.36253    0.68090   1.00
N1       0.71818    0.40605    0.65233   1.00
C6       0.71104    0.44190    0.63794   1.00
C6       0.68922    0.38243    0.64016   1.00
C6       0.67701    0.44127    0.61646   1.00
C6       0.66313    0.40344    0.61788   1.00
H3       0.72940    0.46719    0.64265   1.00
H3       0.68704    0.35169    0.64715   1.00
H3       0.66380    0.46564    0.60139   1.00
H3       0.63694    0.39242    0.60419   1.00
H2       0.70526    0.63772    0.80035   1.00
H2       0.66917    0.59999    0.79875   1.00
N1       0.70971    0.59477    0.84450   1.00
C6       0.72373    0.61922    0.87483   1.00
C6       0.70625    0.55715    0.86150   1.00
C6       0.72848    0.59723    0.90825   1.00
C6       0.71776    0.55909    0.90006   1.00
H3       0.72976    0.65008    0.87192   1.00
H3       0.69652    0.53124    0.84627   1.00
H3       0.73886    0.60795    0.93604   1.00
H3       0.71839    0.53495    0.92035   1.00
C4       0.74987    0.74964    0.52085   1.00
C4       0.75013    0.75036    0.47915   1.00
C3       0.77602    0.72610    0.54249   1.00
C3       0.78526    0.74961    0.45748   1.00
C3       0.72385    0.77321    0.54262   1.00
C3       0.71502    0.75097    0.45741   1.00
C2       0.75015    0.74994    0.60518   1.00
C2       0.75015    0.74994    0.39482   1.00
C3a      0.77627    0.72613    0.58401   1.00
C3       0.78519    0.74942    0.41618   1.00
C3       0.72405    0.77332    0.58389   1.00
C3a      0.71482    0.75079    0.41597   1.00
H1       0.79619    0.70733    0.52706   1.00
H1       0.81305    0.74953    0.47250   1.00
C5       0.80443    0.70054    0.60590   1.00
H1       0.81271    0.74889    0.40067   1.00
H1       0.70388    0.79200    0.59944   1.00
C5       0.67643    0.75151    0.39465   1.00
H1       0.68731    0.75044    0.47253   1.00
H1       0.70366    0.79238    0.52770   1.00
H2       0.66124    0.77931    0.40163   1.00
H2       0.68090    0.75086    0.36253   1.00
N1       0.65233    0.71818    0.40605   1.00
C6       0.63794    0.71104    0.44190   1.00
C6       0.64016    0.68922    0.38243   1.00
C6       0.61646    0.67701    0.44127   1.00
C6       0.61788    0.66313    0.40344   1.00
H3       0.64265    0.72940    0.46719   1.00
H3       0.64715    0.68704    0.35169   1.00
H3       0.60139    0.66380    0.46564   1.00
H3       0.60419    0.63694    0.39242   1.00
H2       0.80035    0.70526    0.63772   1.00
H2       0.79875    0.66917    0.59999   1.00
N1       0.84450    0.70971    0.59477   1.00
C6       0.87483    0.72373    0.61922   1.00
C6       0.86150    0.70625    0.55715   1.00
C6       0.90825    0.72848    0.59723   1.00
C6       0.90006    0.71776    0.55909   1.00
H3       0.87192    0.72976    0.65008   1.00
H3       0.84627    0.69652    0.53124   1.00
H3       0.93604    0.73886    0.60795   1.00
H3       0.92035    0.71839    0.53495   1.00
C4       0.24987    0.25036    0.97915   1.00
C4       0.25013    0.24964    1.02085   1.00
C3       0.27602    0.27390    0.95751   1.00
C3       0.28526    0.25039    1.04252   1.00
C3       0.22385    0.22679    0.95738   1.00
C3       0.21502    0.24903    1.04259   1.00
C2       0.25015    0.25006    0.89482   1.00
C2       0.25015    0.25006    1.10518   1.00
C3a      0.27627    0.27387    0.91599   1.00
C3       0.28519    0.25058    1.08382   1.00
C3       0.22405    0.22668    0.91611   1.00
C3a      0.21482    0.24921    1.08403   1.00
H1       0.29619    0.29267    0.97294   1.00
H1       0.31305    0.25047    1.02750   1.00
C5       0.30443    0.29946    0.89410   1.00
H1       0.31271    0.25111    1.09933   1.00
H1       0.20388    0.20800    0.90056   1.00
C5       0.17643    0.24849    1.10535   1.00
H1       0.18731    0.24956    1.02747   1.00
H1       0.20366    0.20762    0.97230   1.00
H2       0.16124    0.22069    1.09837   1.00
H2       0.18090    0.24914    1.13747   1.00
N1       0.15233    0.28182    1.09395   1.00
C6       0.13794    0.28896    1.05810   1.00
C6       0.14016    0.31078    1.11757   1.00
C6       0.11646    0.32299    1.05873   1.00
C6       0.11788    0.33687    1.09656   1.00
H3       0.14265    0.27060    1.03281   1.00
H3       0.14715    0.31296    1.14831   1.00
H3       0.10139    0.33620    1.03436   1.00
H3       0.10419    0.36306    1.10758   1.00
H2       0.30035    0.29474    0.86228   1.00
H2       0.29875    0.33083    0.90001   1.00
N1       0.34450    0.29029    0.90523   1.00
C6       0.37483    0.27627    0.88078   1.00
C6       0.36150    0.29375    0.94285   1.00
C6       0.40825    0.27152    0.90277   1.00
C6       0.40006    0.28224    0.94091   1.00
H3       0.37192    0.27024    0.84992   1.00
H3       0.34627    0.30348    0.96876   1.00
H3       0.43604    0.26114    0.89205   1.00
H3       0.42035    0.28161    0.96505   1.00
C4       0.25036    0.47915    0.74987   1.00
C4       0.24964    0.52085    0.75013   1.00
C3       0.27390    0.45751    0.77602   1.00
C3       0.25039    0.54252    0.78526   1.00
C3       0.22679    0.45738    0.72385   1.00
C3       0.24903    0.54259    0.71502   1.00
C2       0.25006    0.39482    0.75015   1.00
C2       0.25006    0.60518    0.75015   1.00
C3a      0.27387    0.41599    0.77627   1.00
C3       0.25058    0.58382    0.78519   1.00
C3       0.22668    0.41611    0.72405   1.00
C3a      0.24921    0.58403    0.71482   1.00
H1       0.29267    0.47294    0.79619   1.00
H1       0.25047    0.52750    0.81305   1.00
C5       0.29946    0.39410    0.80443   1.00
H1       0.25111    0.59933    0.81271   1.00
H1       0.20800    0.40056    0.70388   1.00
C5       0.24849    0.60535    0.67643   1.00
H1       0.24956    0.52747    0.68731   1.00
H1       0.20762    0.47230    0.70366   1.00
H2       0.22069    0.59837    0.66124   1.00
H2       0.24914    0.63747    0.68090   1.00
N1       0.28182    0.59395    0.65233   1.00
C6       0.28896    0.55810    0.63794   1.00
C6       0.31078    0.61757    0.64016   1.00
C6       0.32299    0.55873    0.61646   1.00
C6       0.33687    0.59656    0.61788   1.00
H3       0.27060    0.53281    0.64265   1.00
H3       0.31296    0.64831    0.64715   1.00
H3       0.33620    0.53436    0.60139   1.00
H3       0.36306    0.60758    0.60419   1.00
H2       0.29474    0.36228    0.80035   1.00
H2       0.33083    0.40001    0.79875   1.00
N1       0.29029    0.40523    0.84450   1.00
C6       0.27627    0.38078    0.87483   1.00
C6       0.29375    0.44285    0.86150   1.00
C6       0.27152    0.40277    0.90825   1.00
C6       0.28224    0.44091    0.90006   1.00
H3       0.27024    0.34992    0.87192   1.00
H3       0.30348    0.46876    0.84627   1.00
H3       0.26114    0.39205    0.93604   1.00
H3       0.28161    0.46505    0.92035   1.00
C4       0.02085    0.24987    0.74964   1.00
C4       -0.02085   0.25013    0.75036   1.00
C3       0.04249    0.27602    0.72610   1.00
C3       -0.04252   0.28526    0.74961   1.00
C3       0.04262    0.22385    0.77321   1.00
C3       -0.04259   0.21502    0.75097   1.00
C2       0.10518    0.25015    0.74994   1.00
C2       -0.10518   0.25015    0.74994   1.00
C3a      0.08401    0.27627    0.72613   1.00
C3       -0.08382   0.28519    0.74942   1.00
C3       0.08389    0.22405    0.77332   1.00
C3a      -0.08403   0.21482    0.75079   1.00
H1       0.02706    0.29619    0.70733   1.00
H1       -0.02750   0.31305    0.74953   1.00
C5       0.10590    0.30443    0.70054   1.00
H1       -0.09933   0.31271    0.74889   1.00
H1       0.09944    0.20388    0.79200   1.00
C5       -0.10535   0.17643    0.75151   1.00
H1       -0.02747   0.18731    0.75044   1.00
H1       0.02770    0.20366    0.79238   1.00
H2       -0.09837   0.16124    0.77931   1.00
H2       -0.13747   0.18090    0.75086   1.00
N1       -0.09395   0.15233    0.71818   1.00
C6       -0.05810   0.13794    0.71104   1.00
C6       -0.11757   0.14016    0.68922   1.00
C6       -0.05873   0.11646    0.67701   1.00
C6       -0.09656   0.11788    0.66313   1.00
H3       -0.03281   0.14265    0.72940   1.00
H3       -0.14831   0.14715    0.68704   1.00
H3       -0.03436   0.10139    0.66380   1.00
H3       -0.10758   0.10419    0.63694   1.00
H2       0.13772    0.30035    0.70526   1.00
H2       0.09999    0.29875    0.66917   1.00
N1       0.09477    0.34450    0.70971   1.00
C6       0.11922    0.37483    0.72373   1.00
C6       0.05715    0.36150    0.70625   1.00
C6       0.09723    0.40825    0.72848   1.00
C6       0.05909    0.40006    0.71776   1.00
H3       0.15008    0.37192    0.72976   1.00
H3       0.03124    0.34627    0.69652   1.00
H3       0.10795    0.43604    0.73886   1.00
H3       0.03495    0.42035    0.71839   1.00
C4       0.47915    0.24987    0.75036   1.00
C4       0.52085    0.25013    0.74964   1.00
C3       0.45751    0.27602    0.77390   1.00
C3       0.54252    0.28526    0.75039   1.00
C3       0.45738    0.22385    0.72679   1.00
C3       0.54259    0.21502    0.74903   1.00
C2       0.39482    0.25015    0.75006   1.00
C2       0.60518    0.25015    0.75006   1.00
C3a      0.41599    0.27627    0.77387   1.00
C3       0.58382    0.28519    0.75058   1.00
C3       0.41611    0.22405    0.72668   1.00
C3a      0.58403    0.21482    0.74921   1.00
H1       0.47294    0.29619    0.79267   1.00
H1       0.52750    0.31305    0.75047   1.00
C5       0.39410    0.30443    0.79946   1.00
H1       0.59933    0.31271    0.75111   1.00
H1       0.40056    0.20388    0.70800   1.00
C5       0.60535    0.17643    0.74849   1.00
H1       0.52747    0.18731    0.74956   1.00
H1       0.47230    0.20366    0.70762   1.00
H2       0.59837    0.16124    0.72069   1.00
H2       0.63747    0.18090    0.74914   1.00
N1       0.59395    0.15233    0.78182   1.00
C6       0.55810    0.13794    0.78896   1.00
C6       0.61757    0.14016    0.81078   1.00
C6       0.55873    0.11646    0.82299   1.00
C6       0.59656    0.11788    0.83687   1.00
H3       0.53281    0.14265    0.77060   1.00
H3       0.64831    0.14715    0.81296   1.00
H3       0.53436    0.10139    0.83620   1.00
H3       0.60758    0.10419    0.86306   1.00
H2       0.36228    0.30035    0.79474   1.00
H2       0.40001    0.29875    0.83083   1.00
N1       0.40523    0.34450    0.79029   1.00
C6       0.38078    0.37483    0.77627   1.00
C6       0.44285    0.36150    0.79375   1.00
C6       0.40277    0.40825    0.77152   1.00
C6       0.44091    0.40006    0.78224   1.00
H3       0.34992    0.37192    0.77024   1.00
H3       0.46876    0.34627    0.80348   1.00
H3       0.39205    0.43604    0.76114   1.00
H3       0.46505    0.42035    0.78161   1.00
C4       0.24964    0.02085    0.74987   1.00
C4       0.25036    -0.02085   0.75013   1.00
C3       0.22610    0.04249    0.77602   1.00
C3       0.24961    -0.04252   0.78526   1.00
C3       0.27321    0.04262    0.72385   1.00
C3       0.25097    -0.04259   0.71502   1.00
C2       0.24994    0.10518    0.75015   1.00
C2       0.24994    -0.10518   0.75015   1.00
C3a      0.22613    0.08401    0.77627   1.00
C3       0.24942    -0.08382   0.78519   1.00
C3       0.27332    0.08389    0.72405   1.00
C3a      0.25079    -0.08403   0.71482   1.00
H1       0.20733    0.02706    0.79619   1.00
H1       0.24953    -0.02750   0.81305   1.00
C5       0.20054    0.10590    0.80443   1.00
H1       0.24889    -0.09933   0.81271   1.00
H1       0.29200    0.09944    0.70388   1.00
C5       0.25151    -0.10535   0.67643   1.00
H1       0.25044    -0.02747   0.68731   1.00
H1       0.29238    0.02770    0.70366   1.00
H2       0.27931    -0.09837   0.66124   1.00
H2       0.25086    -0.13747   0.68090   1.00
N1       0.21818    -0.09395   0.65233   1.00
C6       0.21104    -0.05810   0.63794   1.00
C6       0.18922    -0.11757   0.64016   1.00
C6       0.17701    -0.05873   0.61646   1.00
C6       0.16313    -0.09656   0.61788   1.00
H3       0.22940    -0.03281   0.64265   1.00
H3       0.18704    -0.14831   0.64715   1.00
H3       0.16380    -0.03436   0.60139   1.00
H3       0.13694    -0.10758   0.60419   1.00
H2       0.20526    0.13772    0.80035   1.00
H2       0.16917    0.09999    0.79875   1.00
N1       0.20971    0.09477    0.84450   1.00
C6       0.22373    0.11922    0.87483   1.00
C6       0.20625    0.05715    0.86150   1.00
C6       0.22848    0.09723    0.90825   1.00
C6       0.21776    0.05909    0.90006   1.00
H3       0.22976    0.15008    0.87192   1.00
H3       0.19652    0.03124    0.84627   1.00
H3       0.23886    0.10795    0.93604   1.00
H3       0.21839    0.03495    0.92035   1.00
C4       0.24987    0.24964    0.52085   1.00
C4       0.25013    0.25036    0.47915   1.00
C3       0.27602    0.22610    0.54249   1.00
C3       0.28526    0.24961    0.45748   1.00
C3       0.22385    0.27321    0.54262   1.00
C3       0.21502    0.25097    0.45741   1.00
C2       0.25015    0.24994    0.60518   1.00
C2       0.25015    0.24994    0.39482   1.00
C3a      0.27627    0.22613    0.58401   1.00
C3       0.28519    0.24942    0.41618   1.00
C3       0.22405    0.27332    0.58389   1.00
C3a      0.21482    0.25079    0.41597   1.00
H1       0.29619    0.20733    0.52706   1.00
H1       0.31305    0.24953    0.47250   1.00
C5       0.30443    0.20054    0.60590   1.00
H1       0.31271    0.24889    0.40067   1.00
H1       0.20388    0.29200    0.59944   1.00
C5       0.17643    0.25151    0.39465   1.00
H1       0.18731    0.25044    0.47253   1.00
H1       0.20366    0.29238    0.52770   1.00
H2       0.16124    0.27931    0.40163   1.00
H2       0.18090    0.25086    0.36253   1.00
N1       0.15233    0.21818    0.40605   1.00
C6       0.13794    0.21104    0.44190   1.00
C6       0.14016    0.18922    0.38243   1.00
C6       0.11646    0.17701    0.44127   1.00
C6       0.11788    0.16313    0.40344   1.00
H3       0.14265    0.22940    0.46719   1.00
H3       0.14715    0.18704    0.35169   1.00
H3       0.10139    0.16380    0.46564   1.00
H3       0.10419    0.13694    0.39242   1.00
H2       0.30035    0.20526    0.63772   1.00
H2       0.29875    0.16917    0.59999   1.00
N1       0.34450    0.20971    0.59477   1.00
C6       0.37483    0.22373    0.61922   1.00
C6       0.36150    0.20625    0.55715   1.00
C6       0.40825    0.22848    0.59723   1.00
C6       0.40006    0.21776    0.55909   1.00
H3       0.37192    0.22976    0.65008   1.00
H3       0.34627    0.19652    0.53124   1.00
H3       0.43604    0.23886    0.60795   1.00
H3       0.42035    0.21839    0.53495   1.00
C4       0.24987    0.75036    0.47915   1.00
C4       0.25013    0.74964    0.52085   1.00
C3       0.27602    0.77390    0.45751   1.00
C3       0.28526    0.75039    0.54252   1.00
C3       0.22385    0.72679    0.45738   1.00
C3       0.21502    0.74903    0.54259   1.00
C2       0.25015    0.75006    0.39482   1.00
C2       0.25015    0.75006    0.60518   1.00
C3a      0.27627    0.77387    0.41599   1.00
C3       0.28519    0.75058    0.58382   1.00
C3       0.22405    0.72668    0.41611   1.00
C3a      0.21482    0.74921    0.58403   1.00
H1       0.29619    0.79267    0.47294   1.00
H1       0.31305    0.75047    0.52750   1.00
C5       0.30443    0.79946    0.39410   1.00
H1       0.31271    0.75111    0.59933   1.00
H1       0.20388    0.70800    0.40056   1.00
C5       0.17643    0.74849    0.60535   1.00
H1       0.18731    0.74956    0.52747   1.00
H1       0.20366    0.70762    0.47230   1.00
H2       0.16124    0.72069    0.59837   1.00
H2       0.18090    0.74914    0.63747   1.00
N1       0.15233    0.78182    0.59395   1.00
C6       0.13794    0.78896    0.55810   1.00
C6       0.14016    0.81078    0.61757   1.00
C6       0.11646    0.82299    0.55873   1.00
C6       0.11788    0.83687    0.59656   1.00
H3       0.14265    0.77060    0.53281   1.00
H3       0.14715    0.81296    0.64831   1.00
H3       0.10139    0.83620    0.53436   1.00
H3       0.10419    0.86306    0.60758   1.00
H2       0.30035    0.79474    0.36228   1.00
H2       0.29875    0.83083    0.40001   1.00
N1       0.34450    0.79029    0.40523   1.00
C6       0.37483    0.77627    0.38078   1.00
C6       0.36150    0.79375    0.44285   1.00
C6       0.40825    0.77152    0.40277   1.00
C6       0.40006    0.78224    0.44091   1.00
H3       0.37192    0.77024    0.34992   1.00
H3       0.34627    0.80348    0.46876   1.00
H3       0.43604    0.76114    0.39205   1.00
H3       0.42035    0.78161    0.46505   1.00
C4       0.25036    0.97915    0.24987   1.00
C4       0.24964    1.02085    0.25013   1.00
C3       0.27390    0.95751    0.27602   1.00
C3       0.25039    1.04252    0.28526   1.00
C3       0.22679    0.95738    0.22385   1.00
C3       0.24903    1.04259    0.21502   1.00
C2       0.25006    0.89482    0.25015   1.00
C2       0.25006    1.10518    0.25015   1.00
C3a      0.27387    0.91599    0.27627   1.00
C3       0.25058    1.08382    0.28519   1.00
C3       0.22668    0.91611    0.22405   1.00
C3a      0.24921    1.08403    0.21482   1.00
H1       0.29267    0.97294    0.29619   1.00
H1       0.25047    1.02750    0.31305   1.00
C5       0.29946    0.89410    0.30443   1.00
H1       0.25111    1.09933    0.31271   1.00
H1       0.20800    0.90056    0.20388   1.00
C5       0.24849    1.10535    0.17643   1.00
H1       0.24956    1.02747    0.18731   1.00
H1       0.20762    0.97230    0.20366   1.00
H2       0.22069    1.09837    0.16124   1.00
H2       0.24914    1.13747    0.18090   1.00
N1       0.28182    1.09395    0.15233   1.00
C6       0.28896    1.05810    0.13794   1.00
C6       0.31078    1.11757    0.14016   1.00
C6       0.32299    1.05873    0.11646   1.00
C6       0.33687    1.09656    0.11788   1.00
H3       0.27060    1.03281    0.14265   1.00
H3       0.31296    1.14831    0.14715   1.00
H3       0.33620    1.03436    0.10139   1.00
H3       0.36306    1.10758    0.10419   1.00
H2       0.29474    0.86228    0.30035   1.00
H2       0.33083    0.90001    0.29875   1.00
N1       0.29029    0.90523    0.34450   1.00
C6       0.27627    0.88078    0.37483   1.00
C6       0.29375    0.94285    0.36150   1.00
C6       0.27152    0.90277    0.40825   1.00
C6       0.28224    0.94091    0.40006   1.00
H3       0.27024    0.84992    0.37192   1.00
H3       0.30348    0.96876    0.34627   1.00
H3       0.26114    0.89205    0.43604   1.00
H3       0.28161    0.96505    0.42035   1.00
C4       0.02085    0.74987    0.24964   1.00
C4       -0.02085   0.75013    0.25036   1.00
C3       0.04249    0.77602    0.22610   1.00
C3       -0.04252   0.78526    0.24961   1.00
C3       0.04262    0.72385    0.27321   1.00
C3       -0.04259   0.71502    0.25097   1.00
C2       0.10518    0.75015    0.24994   1.00
C2       -0.10518   0.75015    0.24994   1.00
C3a      0.08401    0.77627    0.22613   1.00
C3       -0.08382   0.78519    0.24942   1.00
C3       0.08389    0.72405    0.27332   1.00
C3a      -0.08403   0.71482    0.25079   1.00
H1       0.02706    0.79619    0.20733   1.00
H1       -0.02750   0.81305    0.24953   1.00
C5       0.10590    0.80443    0.20054   1.00
H1       -0.09933   0.81271    0.24889   1.00
H1       0.09944    0.70388    0.29200   1.00
C5       -0.10535   0.67643    0.25151   1.00
H1       -0.02747   0.68731    0.25044   1.00
H1       0.02770    0.70366    0.29238   1.00
H2       -0.09837   0.66124    0.27931   1.00
H2       -0.13747   0.68090    0.25086   1.00
N1       -0.09395   0.65233    0.21818   1.00
C6       -0.05810   0.63794    0.21104   1.00
C6       -0.11757   0.64016    0.18922   1.00
C6       -0.05873   0.61646    0.17701   1.00
C6       -0.09656   0.61788    0.16313   1.00
H3       -0.03281   0.64265    0.22940   1.00
H3       -0.14831   0.64715    0.18704   1.00
H3       -0.03436   0.60139    0.16380   1.00
H3       -0.10758   0.60419    0.13694   1.00
H2       0.13772    0.80035    0.20526   1.00
H2       0.09999    0.79875    0.16917   1.00
N1       0.09477    0.84450    0.20971   1.00
C6       0.11922    0.87483    0.22373   1.00
C6       0.05715    0.86150    0.20625   1.00
C6       0.09723    0.90825    0.22848   1.00
C6       0.05909    0.90006    0.21776   1.00
H3       0.15008    0.87192    0.22976   1.00
H3       0.03124    0.84627    0.19652   1.00
H3       0.10795    0.93604    0.23886   1.00
H3       0.03495    0.92035    0.21839   1.00
C4       0.47915    0.74987    0.25036   1.00
C4       0.52085    0.75013    0.24964   1.00
C3       0.45751    0.77602    0.27390   1.00
C3       0.54252    0.78526    0.25039   1.00
C3       0.45738    0.72385    0.22679   1.00
C3       0.54259    0.71502    0.24903   1.00
C2       0.39482    0.75015    0.25006   1.00
C2       0.60518    0.75015    0.25006   1.00
C3a      0.41599    0.77627    0.27387   1.00
C3       0.58382    0.78519    0.25058   1.00
C3       0.41611    0.72405    0.22668   1.00
C3a      0.58403    0.71482    0.24921   1.00
H1       0.47294    0.79619    0.29267   1.00
H1       0.52750    0.81305    0.25047   1.00
C5       0.39410    0.80443    0.29946   1.00
H1       0.59933    0.81271    0.25111   1.00
H1       0.40056    0.70388    0.20800   1.00
C5       0.60535    0.67643    0.24849   1.00
H1       0.52747    0.68731    0.24956   1.00
H1       0.47230    0.70366    0.20762   1.00
H2       0.59837    0.66124    0.22069   1.00
H2       0.63747    0.68090    0.24914   1.00
N1       0.59395    0.65233    0.28182   1.00
C6       0.55810    0.63794    0.28896   1.00
C6       0.61757    0.64016    0.31078   1.00
C6       0.55873    0.61646    0.32299   1.00
C6       0.59656    0.61788    0.33687   1.00
H3       0.53281    0.64265    0.27060   1.00
H3       0.64831    0.64715    0.31296   1.00
H3       0.53436    0.60139    0.33620   1.00
H3       0.60758    0.60419    0.36306   1.00
H2       0.36228    0.80035    0.29474   1.00
H2       0.40001    0.79875    0.33083   1.00
N1       0.40523    0.84450    0.29029   1.00
C6       0.38078    0.87483    0.27627   1.00
C6       0.44285    0.86150    0.29375   1.00
C6       0.40277    0.90825    0.27152   1.00
C6       0.44091    0.90006    0.28224   1.00
H3       0.34992    0.87192    0.27024   1.00
H3       0.46876    0.84627    0.30348   1.00
H3       0.39205    0.93604    0.26114   1.00
H3       0.46505    0.92035    0.28161   1.00
C4       0.24964    0.52085    0.24987   1.00
C4       0.25036    0.47915    0.25013   1.00
C3       0.22610    0.54249    0.27602   1.00
C3       0.24961    0.45748    0.28526   1.00
C3       0.27321    0.54262    0.22385   1.00
C3       0.25097    0.45741    0.21502   1.00
C2       0.24994    0.60518    0.25015   1.00
C2       0.24994    0.39482    0.25015   1.00
C3a      0.22613    0.58401    0.27627   1.00
C3       0.24942    0.41618    0.28519   1.00
C3       0.27332    0.58389    0.22405   1.00
C3a      0.25079    0.41597    0.21482   1.00
H1       0.20733    0.52706    0.29619   1.00
H1       0.24953    0.47250    0.31305   1.00
C5       0.20054    0.60590    0.30443   1.00
H1       0.24889    0.40067    0.31271   1.00
H1       0.29200    0.59944    0.20388   1.00
C5       0.25151    0.39465    0.17643   1.00
H1       0.25044    0.47253    0.18731   1.00
H1       0.29238    0.52770    0.20366   1.00
H2       0.27931    0.40163    0.16124   1.00
H2       0.25086    0.36253    0.18090   1.00
N1       0.21818    0.40605    0.15233   1.00
C6       0.21104    0.44190    0.13794   1.00
C6       0.18922    0.38243    0.14016   1.00
C6       0.17701    0.44127    0.11646   1.00
C6       0.16313    0.40344    0.11788   1.00
H3       0.22940    0.46719    0.14265   1.00
H3       0.18704    0.35169    0.14715   1.00
H3       0.16380    0.46564    0.10139   1.00
H3       0.13694    0.39242    0.10419   1.00
H2       0.20526    0.63772    0.30035   1.00
H2       0.16917    0.59999    0.29875   1.00
N1       0.20971    0.59477    0.34450   1.00
C6       0.22373    0.61922    0.37483   1.00
C6       0.20625    0.55715    0.36150   1.00
C6       0.22848    0.59723    0.40825   1.00
C6       0.21776    0.55909    0.40006   1.00
H3       0.22976    0.65008    0.37192   1.00
H3       0.19652    0.53124    0.34627   1.00
H3       0.23886    0.60795    0.43604   1.00
H3       0.21839    0.53495    0.42035   1.00
C4       0.24987    0.74964    0.02085   1.00
C4       0.25013    0.75036    -0.02085   1.00
C3       0.27602    0.72610    0.04249   1.00
C3       0.28526    0.74961    -0.04252   1.00
C3       0.22385    0.77321    0.04262   1.00
C3       0.21502    0.75097    -0.04259   1.00
C2       0.25015    0.74994    0.10518   1.00
C2       0.25015    0.74994    -0.10518   1.00
C3a      0.27627    0.72613    0.08401   1.00
C3       0.28519    0.74942    -0.08382   1.00
C3       0.22405    0.77332    0.08389   1.00
C3a      0.21482    0.75079    -0.08403   1.00
H1       0.29619    0.70733    0.02706   1.00
H1       0.31305    0.74953    -0.02750   1.00
C5       0.30443    0.70054    0.10590   1.00
H1       0.31271    0.74889    -0.09933   1.00
H1       0.20388    0.79200    0.09944   1.00
C5       0.17643    0.75151    -0.10535   1.00
H1       0.18731    0.75044    -0.02747   1.00
H1       0.20366    0.79238    0.02770   1.00
H2       0.16124    0.77931    -0.09837   1.00
H2       0.18090    0.75086    -0.13747   1.00
N1       0.15233    0.71818    -0.09395   1.00
C6       0.13794    0.71104    -0.05810   1.00
C6       0.14016    0.68922    -0.11757   1.00
C6       0.11646    0.67701    -0.05873   1.00
C6       0.11788    0.66313    -0.09656   1.00
H3       0.14265    0.72940    -0.03281   1.00
H3       0.14715    0.68704    -0.14831   1.00
H3       0.10139    0.66380    -0.03436   1.00
H3       0.10419    0.63694    -0.10758   1.00
H2       0.30035    0.70526    0.13772   1.00
H2       0.29875    0.66917    0.09999   1.00
N1       0.34450    0.70971    0.09477   1.00
C6       0.37483    0.72373    0.11922   1.00
C6       0.36150    0.70625    0.05715   1.00
C6       0.40825    0.72848    0.09723   1.00
C6       0.40006    0.71776    0.05909   1.00
H3       0.37192    0.72976    0.15008   1.00
H3       0.34627    0.69652    0.03124   1.00
H3       0.43604    0.73886    0.10795   1.00
H3       0.42035    0.71839    0.03495   1.00
C4       0.74987    0.25036    0.47915   1.00
C4       0.75013    0.24964    0.52085   1.00
C3       0.77602    0.27390    0.45751   1.00
C3       0.78526    0.25039    0.54252   1.00
C3       0.72385    0.22679    0.45738   1.00
C3       0.71502    0.24903    0.54259   1.00
C2       0.75015    0.25006    0.39482   1.00
C2       0.75015    0.25006    0.60518   1.00
C3a      0.77627    0.27387    0.41599   1.00
C3       0.78519    0.25058    0.58382   1.00
C3       0.72405    0.22668    0.41611   1.00
C3a      0.71482    0.24921    0.58403   1.00
H1       0.79619    0.29267    0.47294   1.00
H1       0.81305    0.25047    0.52750   1.00
C5       0.80443    0.29946    0.39410   1.00
H1       0.81271    0.25111    0.59933   1.00
H1       0.70388    0.20800    0.40056   1.00
C5       0.67643    0.24849    0.60535   1.00
H1       0.68731    0.24956    0.52747   1.00
H1       0.70366    0.20762    0.47230   1.00
H2       0.66124    0.22069    0.59837   1.00
H2       0.68090    0.24914    0.63747   1.00
N1       0.65233    0.28182    0.59395   1.00
C6       0.63794    0.28896    0.55810   1.00
C6       0.64016    0.31078    0.61757   1.00
C6       0.61646    0.32299    0.55873   1.00
C6       0.61788    0.33687    0.59656   1.00
H3       0.64265    0.27060    0.53281   1.00
H3       0.64715    0.31296    0.64831   1.00
H3       0.60139    0.33620    0.53436   1.00
H3       0.60419    0.36306    0.60758   1.00
H2       0.80035    0.29474    0.36228   1.00
H2       0.79875    0.33083    0.40001   1.00
N1       0.84450    0.29029    0.40523   1.00
C6       0.87483    0.27627    0.38078   1.00
C6       0.86150    0.29375    0.44285   1.00
C6       0.90825    0.27152    0.40277   1.00
C6       0.90006    0.28224    0.44091   1.00
H3       0.87192    0.27024    0.34992   1.00
H3       0.84627    0.30348    0.46876   1.00
H3       0.93604    0.26114    0.39205   1.00
H3       0.92035    0.28161    0.46505   1.00
C4       0.75036    0.47915    0.24987   1.00
C4       0.74964    0.52085    0.25013   1.00
C3       0.77390    0.45751    0.27602   1.00
C3       0.75039    0.54252    0.28526   1.00
C3       0.72679    0.45738    0.22385   1.00
C3       0.74903    0.54259    0.21502   1.00
C2       0.75006    0.39482    0.25015   1.00
C2       0.75006    0.60518    0.25015   1.00
C3a      0.77387    0.41599    0.27627   1.00
C3       0.75058    0.58382    0.28519   1.00
C3       0.72668    0.41611    0.22405   1.00
C3a      0.74921    0.58403    0.21482   1.00
H1       0.79267    0.47294    0.29619   1.00
H1       0.75047    0.52750    0.31305   1.00
C5       0.79946    0.39410    0.30443   1.00
H1       0.75111    0.59933    0.31271   1.00
H1       0.70800    0.40056    0.20388   1.00
C5       0.74849    0.60535    0.17643   1.00
H1       0.74956    0.52747    0.18731   1.00
H1       0.70762    0.47230    0.20366   1.00
H2       0.72069    0.59837    0.16124   1.00
H2       0.74914    0.63747    0.18090   1.00
N1       0.78182    0.59395    0.15233   1.00
C6       0.78896    0.55810    0.13794   1.00
C6       0.81078    0.61757    0.14016   1.00
C6       0.82299    0.55873    0.11646   1.00
C6       0.83687    0.59656    0.11788   1.00
H3       0.77060    0.53281    0.14265   1.00
H3       0.81296    0.64831    0.14715   1.00
H3       0.83620    0.53436    0.10139   1.00
H3       0.86306    0.60758    0.10419   1.00
H2       0.79474    0.36228    0.30035   1.00
H2       0.83083    0.40001    0.29875   1.00
N1       0.79029    0.40523    0.34450   1.00
C6       0.77627    0.38078    0.37483   1.00
C6       0.79375    0.44285    0.36150   1.00
C6       0.77152    0.40277    0.40825   1.00
C6       0.78224    0.44091    0.40006   1.00
H3       0.77024    0.34992    0.37192   1.00
H3       0.80348    0.46876    0.34627   1.00
H3       0.76114    0.39205    0.43604   1.00
H3       0.78161    0.46505    0.42035   1.00
C4       0.52085    0.24987    0.24964   1.00
C4       0.47915    0.25013    0.25036   1.00
C3       0.54249    0.27602    0.22610   1.00
C3       0.45748    0.28526    0.24961   1.00
C3       0.54262    0.22385    0.27321   1.00
C3       0.45741    0.21502    0.25097   1.00
C2       0.60518    0.25015    0.24994   1.00
C2       0.39482    0.25015    0.24994   1.00
C3a      0.58401    0.27627    0.22613   1.00
C3       0.41618    0.28519    0.24942   1.00
C3       0.58389    0.22405    0.27332   1.00
C3a      0.41597    0.21482    0.25079   1.00
H1       0.52706    0.29619    0.20733   1.00
H1       0.47250    0.31305    0.24953   1.00
C5       0.60590    0.30443    0.20054   1.00
H1       0.40067    0.31271    0.24889   1.00
H1       0.59944    0.20388    0.29200   1.00
C5       0.39465    0.17643    0.25151   1.00
H1       0.47253    0.18731    0.25044   1.00
H1       0.52770    0.20366    0.29238   1.00
H2       0.40163    0.16124    0.27931   1.00
H2       0.36253    0.18090    0.25086   1.00
N1       0.40605    0.15233    0.21818   1.00
C6       0.44190    0.13794    0.21104   1.00
C6       0.38243    0.14016    0.18922   1.00
C6       0.44127    0.11646    0.17701   1.00
C6       0.40344    0.11788    0.16313   1.00
H3       0.46719    0.14265    0.22940   1.00
H3       0.35169    0.14715    0.18704   1.00
H3       0.46564    0.10139    0.16380   1.00
H3       0.39242    0.10419    0.13694   1.00
H2       0.63772    0.30035    0.20526   1.00
H2       0.59999    0.29875    0.16917   1.00
N1       0.59477    0.34450    0.20971   1.00
C6       0.61922    0.37483    0.22373   1.00
C6       0.55715    0.36150    0.20625   1.00
C6       0.59723    0.40825    0.22848   1.00
C6       0.55909    0.40006    0.21776   1.00
H3       0.65008    0.37192    0.22976   1.00
H3       0.53124    0.34627    0.19652   1.00
H3       0.60795    0.43604    0.23886   1.00
H3       0.53495    0.42035    0.21839   1.00
C4       0.97915    0.24987    0.25036   1.00
C4       1.02085    0.25013    0.24964   1.00
C3       0.95751    0.27602    0.27390   1.00
C3       1.04252    0.28526    0.25039   1.00
C3       0.95738    0.22385    0.22679   1.00
C3       1.04259    0.21502    0.24903   1.00
C2       0.89482    0.25015    0.25006   1.00
C2       1.10518    0.25015    0.25006   1.00
C3a      0.91599    0.27627    0.27387   1.00
C3       1.08382    0.28519    0.25058   1.00
C3       0.91611    0.22405    0.22668   1.00
C3a      1.08403    0.21482    0.24921   1.00
H1       0.97294    0.29619    0.29267   1.00
H1       1.02750    0.31305    0.25047   1.00
C5       0.89410    0.30443    0.29946   1.00
H1       1.09933    0.31271    0.25111   1.00
H1       0.90056    0.20388    0.20800   1.00
C5       1.10535    0.17643    0.24849   1.00
H1       1.02747    0.18731    0.24956   1.00
H1       0.97230    0.20366    0.20762   1.00
H2       1.09837    0.16124    0.22069   1.00
H2       1.13747    0.18090    0.24914   1.00
N1       1.09395    0.15233    0.28182   1.00
C6       1.05810    0.13794    0.28896   1.00
C6       1.11757    0.14016    0.31078   1.00
C6       1.05873    0.11646    0.32299   1.00
C6       1.09656    0.11788    0.33687   1.00
H3       1.03281    0.14265    0.27060   1.00
H3       1.14831    0.14715    0.31296   1.00
H3       1.03436    0.10139    0.33620   1.00
H3       1.10758    0.10419    0.36306   1.00
H2       0.86228    0.30035    0.29474   1.00
H2       0.90001    0.29875    0.33083   1.00
N1       0.90523    0.34450    0.29029   1.00
C6       0.88078    0.37483    0.27627   1.00
C6       0.94285    0.36150    0.29375   1.00
C6       0.90277    0.40825    0.27152   1.00
C6       0.94091    0.40006    0.28224   1.00
H3       0.84992    0.37192    0.27024   1.00
H3       0.96876    0.34627    0.30348   1.00
H3       0.89205    0.43604    0.26114   1.00
H3       0.96505    0.42035    0.28161   1.00
C4       0.74964    0.02085    0.24987   1.00
C4       0.75036    -0.02085   0.25013   1.00
C3       0.72610    0.04249    0.27602   1.00
C3       0.74961    -0.04252   0.28526   1.00
C3       0.77321    0.04262    0.22385   1.00
C3       0.75097    -0.04259   0.21502   1.00
C2       0.74994    0.10518    0.25015   1.00
C2       0.74994    -0.10518   0.25015   1.00
C3a      0.72613    0.08401    0.27627   1.00
C3       0.74942    -0.08382   0.28519   1.00
C3       0.77332    0.08389    0.22405   1.00
C3a      0.75079    -0.08403   0.21482   1.00
H1       0.70733    0.02706    0.29619   1.00
H1       0.74953    -0.02750   0.31305   1.00
C5       0.70054    0.10590    0.30443   1.00
H1       0.74889    -0.09933   0.31271   1.00
H1       0.79200    0.09944    0.20388   1.00
C5       0.75151    -0.10535   0.17643   1.00
H1       0.75044    -0.02747   0.18731   1.00
H1       0.79238    0.02770    0.20366   1.00
H2       0.77931    -0.09837   0.16124   1.00
H2       0.75086    -0.13747   0.18090   1.00
N1       0.71818    -0.09395   0.15233   1.00
C6       0.71104    -0.05810   0.13794   1.00
C6       0.68922    -0.11757   0.14016   1.00
C6       0.67701    -0.05873   0.11646   1.00
C6       0.66313    -0.09656   0.11788   1.00
H3       0.72940    -0.03281   0.14265   1.00
H3       0.68704    -0.14831   0.14715   1.00
H3       0.66380    -0.03436   0.10139   1.00
H3       0.63694    -0.10758   0.10419   1.00
H2       0.70526    0.13772    0.30035   1.00
H2       0.66917    0.09999    0.29875   1.00
N1       0.70971    0.09477    0.34450   1.00
C6       0.72373    0.11922    0.37483   1.00
C6       0.70625    0.05715    0.36150   1.00
C6       0.72848    0.09723    0.40825   1.00
C6       0.71776    0.05909    0.40006   1.00
H3       0.72976    0.15008    0.37192   1.00
H3       0.69652    0.03124    0.34627   1.00
H3       0.73886    0.10795    0.43604   1.00
H3       0.71839    0.03495    0.42035   1.00
C4       0.74987    0.24964    0.02085   1.00
C4       0.75013    0.25036    -0.02085   1.00
C3       0.77602    0.22610    0.04249   1.00
C3       0.78526    0.24961    -0.04252   1.00
C3       0.72385    0.27321    0.04262   1.00
C3       0.71502    0.25097    -0.04259   1.00
C2       0.75015    0.24994    0.10518   1.00
C2       0.75015    0.24994    -0.10518   1.00
C3a      0.77627    0.22613    0.08401   1.00
C3       0.78519    0.24942    -0.08382   1.00
C3       0.72405    0.27332    0.08389   1.00
C3a      0.71482    0.25079    -0.08403   1.00
H1       0.79619    0.20733    0.02706   1.00
H1       0.81305    0.24953    -0.02750   1.00
C5       0.80443    0.20054    0.10590   1.00
H1       0.81271    0.24889    -0.09933   1.00
H1       0.70388    0.29200    0.09944   1.00
C5       0.67643    0.25151    -0.10535   1.00
H1       0.68731    0.25044    -0.02747   1.00
H1       0.70366    0.29238    0.02770   1.00
H2       0.66124    0.27931    -0.09837   1.00
H2       0.68090    0.25086    -0.13747   1.00
N1       0.65233    0.21818    -0.09395   1.00
C6       0.63794    0.21104    -0.05810   1.00
C6       0.64016    0.18922    -0.11757   1.00
C6       0.61646    0.17701    -0.05873   1.00
C6       0.61788    0.16313    -0.09656   1.00
H3       0.64265    0.22940    -0.03281   1.00
H3       0.64715    0.18704    -0.14831   1.00
H3       0.60139    0.16380    -0.03436   1.00
H3       0.60419    0.13694    -0.10758   1.00
H2       0.80035    0.20526    0.13772   1.00
H2       0.79875    0.16917    0.09999   1.00
N1       0.84450    0.20971    0.09477   1.00
C6       0.87483    0.22373    0.11922   1.00
C6       0.86150    0.20625    0.05715   1.00
C6       0.90825    0.22848    0.09723   1.00
C6       0.90006    0.21776    0.05909   1.00
H3       0.87192    0.22976    0.15008   1.00
H3       0.84627    0.19652    0.03124   1.00
H3       0.93604    0.23886    0.10795   1.00
H3       0.92035    0.21839    0.03495   1.00
