data_IRMOF10_SG202_Ligand7_label_m.

_audit_creation_method             'generated by an auxiliary program of Tobunporous'

_symmetry_space_group_name_H-M     'P 1'
_symmetry_Int_Tables_number        1
_symmetry_cell_setting             triclinic

_cell_length_a                    34.2800
_cell_length_b                    34.2800
_cell_length_c                    34.2800
_cell_angle_alpha                 90.0000
_cell_angle_beta                  90.0000
_cell_angle_gamma                 90.0000

loop_
_atom_site_label
_atom_site_fract_x
_atom_site_fract_y
_atom_site_fract_z
_atom_site_occupancy
O1       0.75000    0.75000    0.75000   1.00
Zn1      0.71720    0.78280    0.78280   1.00
Zn1      0.78280    0.71720    0.78280   1.00
Zn1      0.78280    0.78280    0.71720   1.00
Zn1      0.71720    0.71720    0.71720   1.00
O2       0.72650    0.77350    0.83820   1.00
O2       0.72650    0.83820    0.77350   1.00
O2       0.66180    0.77350    0.77350   1.00
O2       0.77350    0.72650    0.83820   1.00
O2       0.83820    0.72650    0.77350   1.00
O2       0.77350    0.66180    0.77350   1.00
O2       0.77350    0.83820    0.72650   1.00
O2       0.83820    0.77350    0.72650   1.00
O2       0.77350    0.77350    0.66180   1.00
O2       0.66180    0.72650    0.72650   1.00
O2       0.72650    0.66180    0.72650   1.00
O2       0.72650    0.72650    0.66180   1.00
C1       0.75000    0.75000    0.85520   1.00
C1       0.75000    0.85520    0.75000   1.00
C1       0.64480    0.75000    0.75000   1.00
C1       0.85520    0.75000    0.75000   1.00
C1       0.75000    0.64480    0.75000   1.00
C1       0.75000    0.75000    0.64480   1.00
O1       0.25000    0.25000    0.75000   1.00
Zn1      0.21720    0.28280    0.78280   1.00
Zn1      0.28280    0.21720    0.78280   1.00
Zn1      0.28280    0.28280    0.71720   1.00
Zn1      0.21720    0.21720    0.71720   1.00
O2       0.22650    0.27350    0.83820   1.00
O2       0.22650    0.33820    0.77350   1.00
O2       0.16180    0.27350    0.77350   1.00
O2       0.27350    0.22650    0.83820   1.00
O2       0.33820    0.22650    0.77350   1.00
O2       0.27350    0.16180    0.77350   1.00
O2       0.27350    0.33820    0.72650   1.00
O2       0.33820    0.27350    0.72650   1.00
O2       0.27350    0.27350    0.66180   1.00
O2       0.16180    0.22650    0.72650   1.00
O2       0.22650    0.16180    0.72650   1.00
O2       0.22650    0.22650    0.66180   1.00
C1       0.25000    0.25000    0.85520   1.00
C1       0.25000    0.35520    0.75000   1.00
C1       0.14480    0.25000    0.75000   1.00
C1       0.35520    0.25000    0.75000   1.00
C1       0.25000    0.14480    0.75000   1.00
C1       0.25000    0.25000    0.64480   1.00
O1       0.25000    0.75000    0.25000   1.00
Zn1      0.21720    0.78280    0.28280   1.00
Zn1      0.28280    0.71720    0.28280   1.00
Zn1      0.28280    0.78280    0.21720   1.00
Zn1      0.21720    0.71720    0.21720   1.00
O2       0.22650    0.77350    0.33820   1.00
O2       0.22650    0.83820    0.27350   1.00
O2       0.16180    0.77350    0.27350   1.00
O2       0.27350    0.72650    0.33820   1.00
O2       0.33820    0.72650    0.27350   1.00
O2       0.27350    0.66180    0.27350   1.00
O2       0.27350    0.83820    0.22650   1.00
O2       0.33820    0.77350    0.22650   1.00
O2       0.27350    0.77350    0.16180   1.00
O2       0.16180    0.72650    0.22650   1.00
O2       0.22650    0.66180    0.22650   1.00
O2       0.22650    0.72650    0.16180   1.00
C1       0.25000    0.75000    0.35520   1.00
C1       0.25000    0.85520    0.25000   1.00
C1       0.14480    0.75000    0.25000   1.00
C1       0.35520    0.75000    0.25000   1.00
C1       0.25000    0.64480    0.25000   1.00
C1       0.25000    0.75000    0.14480   1.00
O1       0.75000    0.25000    0.25000   1.00
Zn1      0.71720    0.28280    0.28280   1.00
Zn1      0.78280    0.21720    0.28280   1.00
Zn1      0.78280    0.28280    0.21720   1.00
Zn1      0.71720    0.21720    0.21720   1.00
O2       0.72650    0.27350    0.33820   1.00
O2       0.72650    0.33820    0.27350   1.00
O2       0.66180    0.27350    0.27350   1.00
O2       0.77350    0.22650    0.33820   1.00
O2       0.83820    0.22650    0.27350   1.00
O2       0.77350    0.16180    0.27350   1.00
O2       0.77350    0.33820    0.22650   1.00
O2       0.83820    0.27350    0.22650   1.00
O2       0.77350    0.27350    0.16180   1.00
O2       0.66180    0.22650    0.22650   1.00
O2       0.72650    0.16180    0.22650   1.00
O2       0.72650    0.22650    0.16180   1.00
C1       0.75000    0.25000    0.35520   1.00
C1       0.75000    0.35520    0.25000   1.00
C1       0.64480    0.25000    0.25000   1.00
C1       0.85520    0.25000    0.25000   1.00
C1       0.75000    0.14480    0.25000   1.00
C1       0.75000    0.25000    0.14480   1.00
O1       0.25000    0.25000    0.25000   1.00
Zn1      0.28280    0.21720    0.21720   1.00
Zn1      0.21720    0.28280    0.21720   1.00
Zn1      0.21720    0.21720    0.28280   1.00
Zn1      0.28280    0.28280    0.28280   1.00
O2       0.27350    0.22650    0.16180   1.00
O2       0.27350    0.16180    0.22650   1.00
O2       0.33820    0.22650    0.22650   1.00
O2       0.22650    0.27350    0.16180   1.00
O2       0.16180    0.27350    0.22650   1.00
O2       0.22650    0.33820    0.22650   1.00
O2       0.22650    0.16180    0.27350   1.00
O2       0.16180    0.22650    0.27350   1.00
O2       0.22650    0.22650    0.33820   1.00
O2       0.33820    0.27350    0.27350   1.00
O2       0.27350    0.33820    0.27350   1.00
O2       0.27350    0.27350    0.33820   1.00
C1       0.25000    0.25000    0.14480   1.00
C1       0.25000    0.14480    0.25000   1.00
C1       0.35520    0.25000    0.25000   1.00
C1       0.14480    0.25000    0.25000   1.00
C1       0.25000    0.35520    0.25000   1.00
C1       0.25000    0.25000    0.35520   1.00
O1       0.75000    0.75000    0.25000   1.00
Zn1      0.78280    0.71720    0.21720   1.00
Zn1      0.71720    0.78280    0.21720   1.00
Zn1      0.71720    0.71720    0.28280   1.00
Zn1      0.78280    0.78280    0.28280   1.00
O2       0.77350    0.72650    0.16180   1.00
O2       0.77350    0.66180    0.22650   1.00
O2       0.83820    0.72650    0.22650   1.00
O2       0.72650    0.77350    0.16180   1.00
O2       0.66180    0.77350    0.22650   1.00
O2       0.72650    0.83820    0.22650   1.00
O2       0.72650    0.66180    0.27350   1.00
O2       0.66180    0.72650    0.27350   1.00
O2       0.72650    0.72650    0.33820   1.00
O2       0.83820    0.77350    0.27350   1.00
O2       0.77350    0.83820    0.27350   1.00
O2       0.77350    0.77350    0.33820   1.00
C1       0.75000    0.75000    0.14480   1.00
C1       0.75000    0.64480    0.25000   1.00
C1       0.85520    0.75000    0.25000   1.00
C1       0.64480    0.75000    0.25000   1.00
C1       0.75000    0.85520    0.25000   1.00
C1       0.75000    0.75000    0.35520   1.00
O1       0.75000    0.25000    0.75000   1.00
Zn1      0.78280    0.21720    0.71720   1.00
Zn1      0.71720    0.28280    0.71720   1.00
Zn1      0.71720    0.21720    0.78280   1.00
Zn1      0.78280    0.28280    0.78280   1.00
O2       0.77350    0.22650    0.66180   1.00
O2       0.77350    0.16180    0.72650   1.00
O2       0.83820    0.22650    0.72650   1.00
O2       0.72650    0.27350    0.66180   1.00
O2       0.66180    0.27350    0.72650   1.00
O2       0.72650    0.33820    0.72650   1.00
O2       0.72650    0.16180    0.77350   1.00
O2       0.66180    0.22650    0.77350   1.00
O2       0.72650    0.22650    0.83820   1.00
O2       0.83820    0.27350    0.77350   1.00
O2       0.77350    0.33820    0.77350   1.00
O2       0.77350    0.27350    0.83820   1.00
C1       0.75000    0.25000    0.64480   1.00
C1       0.75000    0.14480    0.75000   1.00
C1       0.85520    0.25000    0.75000   1.00
C1       0.64480    0.25000    0.75000   1.00
C1       0.75000    0.35520    0.75000   1.00
C1       0.75000    0.25000    0.85520   1.00
O1       0.25000    0.75000    0.75000   1.00
Zn1      0.28280    0.71720    0.71720   1.00
Zn1      0.21720    0.78280    0.71720   1.00
Zn1      0.21720    0.71720    0.78280   1.00
Zn1      0.28280    0.78280    0.78280   1.00
O2       0.27350    0.72650    0.66180   1.00
O2       0.27350    0.66180    0.72650   1.00
O2       0.33820    0.72650    0.72650   1.00
O2       0.22650    0.77350    0.66180   1.00
O2       0.16180    0.77350    0.72650   1.00
O2       0.22650    0.83820    0.72650   1.00
O2       0.22650    0.66180    0.77350   1.00
O2       0.16180    0.72650    0.77350   1.00
O2       0.22650    0.72650    0.83820   1.00
O2       0.33820    0.77350    0.77350   1.00
O2       0.27350    0.83820    0.77350   1.00
O2       0.27350    0.77350    0.83820   1.00
C1       0.25000    0.75000    0.64480   1.00
C1       0.25000    0.64480    0.75000   1.00
C1       0.35520    0.75000    0.75000   1.00
C1       0.14480    0.75000    0.75000   1.00
C1       0.25000    0.85520    0.75000   1.00
C1       0.25000    0.75000    0.85520   1.00
C5       0.82715    0.64939    1.13218   1.00
H2       0.84240    0.67355    1.14745   1.00
H2       0.84850    0.63748    1.11090   1.00
C5       0.81544    0.61784    1.16194   1.00
C5       0.85022    0.59097    1.17123   1.00
H2       0.79105    0.59992    1.15015   1.00
O3       0.70199    0.69794    0.98000   1.00
C4       0.75008    0.75041    1.02100   1.00
C3c      0.77621    0.72724    1.04243   1.00
H1       0.79697    0.70898    1.02725   1.00
C3d      0.72364    0.77442    1.04135   1.00
C3       0.77567    0.72677    1.08354   1.00
O2       0.80513    0.70713    1.10248   1.00
C3       0.72252    0.77346    1.08227   1.00
H1       0.70081    0.79133    1.09657   1.00
C2       0.74845    0.74988    1.10439   1.00
C5       0.66264    0.71009    0.97879   1.00
H2       0.65121    0.71176    0.94838   1.00
H2       0.65896    0.73932    0.99266   1.00
C5       0.63860    0.68018    1.00129   1.00
H2       0.65071    0.67770    1.03137   1.00
H2       0.64219    0.65119    0.98698   1.00
C5       0.59527    0.69198    1.00262   1.00
H2       0.58306    0.69477    0.97268   1.00
H2       0.59151    0.72027    1.01811   1.00
C5       0.57149    0.66073    1.02445   1.00
C5       0.71064    0.83224    1.01105   1.00
C5       0.79319    0.66850    1.11070   1.00
H2       0.73587    0.82912    0.99088   1.00
H2       0.72016    0.84926    1.03712   1.00
H2       0.78695    0.65256    1.08300   1.00
H2       0.76614    0.66739    1.12895   1.00
H2       0.80629    0.63114    1.19030   1.00
H2       0.71235    0.88129    0.94247   1.00
H2       0.71201    0.90912    0.98763   1.00
C2       0.74733    0.74977    0.89605   1.00
C3       0.77320    0.77489    0.91597   1.00
O2       0.79041    0.80579    0.89674   1.00
C3       0.72412    0.72383    0.91826   1.00
H1       0.70477    0.70353    0.90385   1.00
C3a      0.77456    0.77430    0.95713   1.00
H1       0.79287    0.79525    0.97202   1.00
C3b      0.72464    0.72418    0.95922   1.00
C4       0.74992    0.74959    0.97900   1.00
O3       0.69537    0.79551    1.02167   1.00
C5       0.82941    0.79669    0.88720   1.00
H2       0.84690    0.79014    0.91391   1.00
C5       0.84648    0.83231    0.86674   1.00
H2       0.83084    0.77103    0.86726   1.00
H2       0.85470    0.85419    0.88932   1.00
H2       0.82271    0.84571    0.84907   1.00
C5       0.88180    0.82238    0.84082   1.00
H2       0.90391    0.80629    0.85824   1.00
C5       0.90063    0.85977    0.82453   1.00
H2       0.87298    0.80438    0.81507   1.00
C5       0.67836    0.85463    0.99017   1.00
H2       0.65615    0.86359    1.01215   1.00
H2       0.66359    0.83432    0.96952   1.00
C5       0.69424    0.89033    0.96800   1.00
C5       0.66016    0.91499    0.95225   1.00
H2       0.87045    0.60609    1.19286   1.00
C5       0.83514    0.55262    1.18912   1.00
H2       0.86689    0.58433    1.14323   1.00
C5       0.53044    0.67667    1.03337   1.00
H2       0.56893    0.63351    1.00551   1.00
H2       0.58682    0.65302    1.05293   1.00
C5       0.93976    0.84953    0.80497   1.00
H2       0.88031    0.87356    0.80211   1.00
H2       0.90594    0.88124    0.84937   1.00
H2       0.63882    0.89531    0.93602   1.00
H2       0.64452    0.92976    0.97761   1.00
C5       0.67602    0.94626    0.92417   1.00
H2       0.80450    0.55729    1.20116   1.00
H2       0.83437    0.52901    1.16571   1.00
H2       0.85540    0.54315    1.21374   1.00
H2       0.52640    0.70599    1.01820   1.00
H2       0.50757    0.65522    1.02229   1.00
H2       0.52698    0.68061    1.06621   1.00
H2       0.93687    0.82057    0.78889   1.00
H2       0.94794    0.87345    0.78336   1.00
H2       0.96343    0.84701    0.82819   1.00
H2       0.67558    0.93448    0.89307   1.00
H2       0.65699    0.97347    0.92598   1.00
H2       0.70723    0.95398    0.93266   1.00
C5       0.64939    1.13218    0.82715   1.00
H2       0.67355    1.14745    0.84240   1.00
H2       0.63748    1.11090    0.84850   1.00
C5       0.61784    1.16194    0.81544   1.00
C5       0.59097    1.17123    0.85022   1.00
H2       0.59992    1.15015    0.79105   1.00
O3       0.69794    0.98000    0.70199   1.00
C4       0.75041    1.02100    0.75008   1.00
C3c      0.72724    1.04243    0.77621   1.00
H1       0.70898    1.02725    0.79697   1.00
C3d      0.77442    1.04135    0.72364   1.00
C3       0.72677    1.08354    0.77567   1.00
O2       0.70713    1.10248    0.80513   1.00
C3       0.77346    1.08227    0.72252   1.00
H1       0.79133    1.09657    0.70081   1.00
C2       0.74988    1.10439    0.74845   1.00
C5       0.71009    0.97879    0.66264   1.00
H2       0.71176    0.94838    0.65121   1.00
H2       0.73932    0.99266    0.65896   1.00
C5       0.68018    1.00129    0.63860   1.00
H2       0.67770    1.03137    0.65071   1.00
H2       0.65119    0.98698    0.64219   1.00
C5       0.69198    1.00262    0.59527   1.00
H2       0.69477    0.97268    0.58306   1.00
H2       0.72027    1.01811    0.59151   1.00
C5       0.66073    1.02445    0.57149   1.00
C5       0.83224    1.01105    0.71064   1.00
C5       0.66850    1.11070    0.79319   1.00
H2       0.82912    0.99088    0.73587   1.00
H2       0.84926    1.03712    0.72016   1.00
H2       0.65256    1.08300    0.78695   1.00
H2       0.66739    1.12895    0.76614   1.00
H2       0.63114    1.19030    0.80629   1.00
H2       0.88129    0.94247    0.71235   1.00
H2       0.90912    0.98763    0.71201   1.00
C2       0.74977    0.89605    0.74733   1.00
C3       0.77489    0.91597    0.77320   1.00
O2       0.80579    0.89674    0.79041   1.00
C3       0.72383    0.91826    0.72412   1.00
H1       0.70353    0.90385    0.70477   1.00
C3a      0.77430    0.95713    0.77456   1.00
H1       0.79525    0.97202    0.79287   1.00
C3b      0.72418    0.95922    0.72464   1.00
C4       0.74959    0.97900    0.74992   1.00
O3       0.79551    1.02167    0.69537   1.00
C5       0.79669    0.88720    0.82941   1.00
H2       0.79014    0.91391    0.84690   1.00
C5       0.83231    0.86674    0.84648   1.00
H2       0.77103    0.86726    0.83084   1.00
H2       0.85419    0.88932    0.85470   1.00
H2       0.84571    0.84907    0.82271   1.00
C5       0.82238    0.84082    0.88180   1.00
H2       0.80629    0.85824    0.90391   1.00
C5       0.85977    0.82453    0.90063   1.00
H2       0.80438    0.81507    0.87298   1.00
C5       0.85463    0.99017    0.67836   1.00
H2       0.86359    1.01215    0.65615   1.00
H2       0.83432    0.96952    0.66359   1.00
C5       0.89033    0.96800    0.69424   1.00
C5       0.91499    0.95225    0.66016   1.00
H2       0.60609    1.19286    0.87045   1.00
C5       0.55262    1.18912    0.83514   1.00
H2       0.58433    1.14323    0.86689   1.00
C5       0.67667    1.03337    0.53044   1.00
H2       0.63351    1.00551    0.56893   1.00
H2       0.65302    1.05293    0.58682   1.00
C5       0.84953    0.80497    0.93976   1.00
H2       0.87356    0.80211    0.88031   1.00
H2       0.88124    0.84937    0.90594   1.00
H2       0.89531    0.93602    0.63882   1.00
H2       0.92976    0.97761    0.64452   1.00
C5       0.94626    0.92417    0.67602   1.00
H2       0.55729    1.20116    0.80450   1.00
H2       0.52901    1.16571    0.83437   1.00
H2       0.54315    1.21374    0.85540   1.00
H2       0.70599    1.01820    0.52640   1.00
H2       0.65522    1.02229    0.50757   1.00
H2       0.68061    1.06621    0.52698   1.00
H2       0.82057    0.78889    0.93687   1.00
H2       0.87345    0.78336    0.94794   1.00
H2       0.84701    0.82819    0.96343   1.00
H2       0.93448    0.89307    0.67558   1.00
H2       0.97347    0.92598    0.65699   1.00
H2       0.95398    0.93266    0.70723   1.00
C5       0.36782    0.82715    0.85061   1.00
H2       0.35255    0.84240    0.82645   1.00
H2       0.38910    0.84850    0.86252   1.00
C5       0.33806    0.81544    0.88216   1.00
C5       0.32877    0.85022    0.90903   1.00
H2       0.34985    0.79105    0.90008   1.00
O3       0.52000    0.70199    0.80206   1.00
C4       0.47900    0.75008    0.74959   1.00
C3c      0.45757    0.77621    0.77276   1.00
H1       0.47275    0.79697    0.79102   1.00
C3d      0.45865    0.72364    0.72558   1.00
C3       0.41646    0.77567    0.77323   1.00
O2       0.39752    0.80513    0.79287   1.00
C3       0.41773    0.72252    0.72654   1.00
H1       0.40343    0.70081    0.70867   1.00
C2       0.39561    0.74845    0.75012   1.00
C5       0.52121    0.66264    0.78991   1.00
H2       0.55162    0.65121    0.78824   1.00
H2       0.50734    0.65896    0.76068   1.00
C5       0.49871    0.63860    0.81982   1.00
H2       0.46863    0.65071    0.82230   1.00
H2       0.51302    0.64219    0.84881   1.00
C5       0.49738    0.59527    0.80802   1.00
H2       0.52732    0.58306    0.80523   1.00
H2       0.48189    0.59151    0.77973   1.00
C5       0.47555    0.57149    0.83927   1.00
C5       0.48895    0.71064    0.66776   1.00
C5       0.38930    0.79319    0.83150   1.00
H2       0.50912    0.73587    0.67088   1.00
H2       0.46288    0.72016    0.65074   1.00
H2       0.41700    0.78695    0.84744   1.00
H2       0.37105    0.76614    0.83261   1.00
H2       0.30970    0.80629    0.86886   1.00
H2       0.55753    0.71235    0.61871   1.00
H2       0.51237    0.71201    0.59088   1.00
C2       0.60395    0.74733    0.75023   1.00
C3       0.58403    0.77320    0.72511   1.00
O2       0.60326    0.79041    0.69421   1.00
C3       0.58174    0.72412    0.77617   1.00
H1       0.59615    0.70477    0.79647   1.00
C3a      0.54287    0.77456    0.72570   1.00
H1       0.52798    0.79287    0.70475   1.00
C3b      0.54078    0.72464    0.77582   1.00
C4       0.52100    0.74992    0.75041   1.00
O3       0.47833    0.69537    0.70449   1.00
C5       0.61280    0.82941    0.70331   1.00
H2       0.58609    0.84690    0.70986   1.00
C5       0.63326    0.84648    0.66769   1.00
H2       0.63274    0.83084    0.72897   1.00
H2       0.61068    0.85470    0.64581   1.00
H2       0.65093    0.82271    0.65429   1.00
C5       0.65918    0.88180    0.67762   1.00
H2       0.64176    0.90391    0.69371   1.00
C5       0.67547    0.90063    0.64023   1.00
H2       0.68493    0.87298    0.69562   1.00
C5       0.50983    0.67836    0.64537   1.00
H2       0.48785    0.65615    0.63641   1.00
H2       0.53048    0.66359    0.66568   1.00
C5       0.53200    0.69424    0.60967   1.00
C5       0.54775    0.66016    0.58501   1.00
H2       0.30714    0.87045    0.89391   1.00
C5       0.31088    0.83514    0.94738   1.00
H2       0.35677    0.86689    0.91567   1.00
C5       0.46663    0.53044    0.82333   1.00
H2       0.49449    0.56893    0.86649   1.00
H2       0.44707    0.58682    0.84698   1.00
C5       0.69503    0.93976    0.65047   1.00
H2       0.69789    0.88031    0.62644   1.00
H2       0.65063    0.90594    0.61876   1.00
H2       0.56398    0.63882    0.60469   1.00
H2       0.52239    0.64452    0.57024   1.00
C5       0.57583    0.67602    0.55374   1.00
H2       0.29884    0.80450    0.94271   1.00
H2       0.33429    0.83437    0.97099   1.00
H2       0.28626    0.85540    0.95685   1.00
H2       0.48180    0.52640    0.79401   1.00
H2       0.47771    0.50757    0.84478   1.00
H2       0.43379    0.52698    0.81939   1.00
H2       0.71111    0.93687    0.67943   1.00
H2       0.71664    0.94794    0.62655   1.00
H2       0.67181    0.96343    0.65299   1.00
H2       0.60693    0.67558    0.56552   1.00
H2       0.57402    0.65699    0.52653   1.00
H2       0.56734    0.70723    0.54602   1.00
C5       1.13218    0.82715    0.64939   1.00
H2       1.14745    0.84240    0.67355   1.00
H2       1.11090    0.84850    0.63748   1.00
C5       1.16194    0.81544    0.61784   1.00
C5       1.17123    0.85022    0.59097   1.00
H2       1.15015    0.79105    0.59992   1.00
O3       0.98000    0.70199    0.69794   1.00
C4       1.02100    0.75008    0.75041   1.00
C3c      1.04243    0.77621    0.72724   1.00
H1       1.02725    0.79697    0.70898   1.00
C3d      1.04135    0.72364    0.77442   1.00
C3       1.08354    0.77567    0.72677   1.00
O2       1.10248    0.80513    0.70713   1.00
C3       1.08227    0.72252    0.77346   1.00
H1       1.09657    0.70081    0.79133   1.00
C2       1.10439    0.74845    0.74988   1.00
C5       0.97879    0.66264    0.71009   1.00
H2       0.94838    0.65121    0.71176   1.00
H2       0.99266    0.65896    0.73932   1.00
C5       1.00129    0.63860    0.68018   1.00
H2       1.03137    0.65071    0.67770   1.00
H2       0.98698    0.64219    0.65119   1.00
C5       1.00262    0.59527    0.69198   1.00
H2       0.97268    0.58306    0.69477   1.00
H2       1.01811    0.59151    0.72027   1.00
C5       1.02445    0.57149    0.66073   1.00
C5       1.01105    0.71064    0.83224   1.00
C5       1.11070    0.79319    0.66850   1.00
H2       0.99088    0.73587    0.82912   1.00
H2       1.03712    0.72016    0.84926   1.00
H2       1.08300    0.78695    0.65256   1.00
H2       1.12895    0.76614    0.66739   1.00
H2       1.19030    0.80629    0.63114   1.00
H2       0.94247    0.71235    0.88129   1.00
H2       0.98763    0.71201    0.90912   1.00
C2       0.89605    0.74733    0.74977   1.00
C3       0.91597    0.77320    0.77489   1.00
O2       0.89674    0.79041    0.80579   1.00
C3       0.91826    0.72412    0.72383   1.00
H1       0.90385    0.70477    0.70353   1.00
C3a      0.95713    0.77456    0.77430   1.00
H1       0.97202    0.79287    0.79525   1.00
C3b      0.95922    0.72464    0.72418   1.00
C4       0.97900    0.74992    0.74959   1.00
O3       1.02167    0.69537    0.79551   1.00
C5       0.88720    0.82941    0.79669   1.00
H2       0.91391    0.84690    0.79014   1.00
C5       0.86674    0.84648    0.83231   1.00
H2       0.86726    0.83084    0.77103   1.00
H2       0.88932    0.85470    0.85419   1.00
H2       0.84907    0.82271    0.84571   1.00
C5       0.84082    0.88180    0.82238   1.00
H2       0.85824    0.90391    0.80629   1.00
C5       0.82453    0.90063    0.85977   1.00
H2       0.81507    0.87298    0.80438   1.00
C5       0.99017    0.67836    0.85463   1.00
H2       1.01215    0.65615    0.86359   1.00
H2       0.96952    0.66359    0.83432   1.00
C5       0.96800    0.69424    0.89033   1.00
C5       0.95225    0.66016    0.91499   1.00
H2       1.19286    0.87045    0.60609   1.00
C5       1.18912    0.83514    0.55262   1.00
H2       1.14323    0.86689    0.58433   1.00
C5       1.03337    0.53044    0.67667   1.00
H2       1.00551    0.56893    0.63351   1.00
H2       1.05293    0.58682    0.65302   1.00
C5       0.80497    0.93976    0.84953   1.00
H2       0.80211    0.88031    0.87356   1.00
H2       0.84937    0.90594    0.88124   1.00
H2       0.93602    0.63882    0.89531   1.00
H2       0.97761    0.64452    0.92976   1.00
C5       0.92417    0.67602    0.94626   1.00
H2       1.20116    0.80450    0.55729   1.00
H2       1.16571    0.83437    0.52901   1.00
H2       1.21374    0.85540    0.54315   1.00
H2       1.01820    0.52640    0.70599   1.00
H2       1.02229    0.50757    0.65522   1.00
H2       1.06621    0.52698    0.68061   1.00
H2       0.78889    0.93687    0.82057   1.00
H2       0.78336    0.94794    0.87345   1.00
H2       0.82819    0.96343    0.84701   1.00
H2       0.89307    0.67558    0.93448   1.00
H2       0.92598    0.65699    0.97347   1.00
H2       0.93266    0.70723    0.95398   1.00
C5       0.85061    0.36782    0.82715   1.00
H2       0.82645    0.35255    0.84240   1.00
H2       0.86252    0.38910    0.84850   1.00
C5       0.88216    0.33806    0.81544   1.00
C5       0.90903    0.32877    0.85022   1.00
H2       0.90008    0.34985    0.79105   1.00
O3       0.80206    0.52000    0.70199   1.00
C4       0.74959    0.47900    0.75008   1.00
C3c      0.77276    0.45757    0.77621   1.00
H1       0.79102    0.47275    0.79697   1.00
C3d      0.72558    0.45865    0.72364   1.00
C3       0.77323    0.41646    0.77567   1.00
O2       0.79287    0.39752    0.80513   1.00
C3       0.72654    0.41773    0.72252   1.00
H1       0.70867    0.40343    0.70081   1.00
C2       0.75012    0.39561    0.74845   1.00
C5       0.78991    0.52121    0.66264   1.00
H2       0.78824    0.55162    0.65121   1.00
H2       0.76068    0.50734    0.65896   1.00
C5       0.81982    0.49871    0.63860   1.00
H2       0.82230    0.46863    0.65071   1.00
H2       0.84881    0.51302    0.64219   1.00
C5       0.80802    0.49738    0.59527   1.00
H2       0.80523    0.52732    0.58306   1.00
H2       0.77973    0.48189    0.59151   1.00
C5       0.83927    0.47555    0.57149   1.00
C5       0.66776    0.48895    0.71064   1.00
C5       0.83150    0.38930    0.79319   1.00
H2       0.67088    0.50912    0.73587   1.00
H2       0.65074    0.46288    0.72016   1.00
H2       0.84744    0.41700    0.78695   1.00
H2       0.83261    0.37105    0.76614   1.00
H2       0.86886    0.30970    0.80629   1.00
H2       0.61871    0.55753    0.71235   1.00
H2       0.59088    0.51237    0.71201   1.00
C2       0.75023    0.60395    0.74733   1.00
C3       0.72511    0.58403    0.77320   1.00
O2       0.69421    0.60326    0.79041   1.00
C3       0.77617    0.58174    0.72412   1.00
H1       0.79647    0.59615    0.70477   1.00
C3a      0.72570    0.54287    0.77456   1.00
H1       0.70475    0.52798    0.79287   1.00
C3b      0.77582    0.54078    0.72464   1.00
C4       0.75041    0.52100    0.74992   1.00
O3       0.70449    0.47833    0.69537   1.00
C5       0.70331    0.61280    0.82941   1.00
H2       0.70986    0.58609    0.84690   1.00
C5       0.66769    0.63326    0.84648   1.00
H2       0.72897    0.63274    0.83084   1.00
H2       0.64581    0.61068    0.85470   1.00
H2       0.65429    0.65093    0.82271   1.00
C5       0.67762    0.65918    0.88180   1.00
H2       0.69371    0.64176    0.90391   1.00
C5       0.64023    0.67547    0.90063   1.00
H2       0.69562    0.68493    0.87298   1.00
C5       0.64537    0.50983    0.67836   1.00
H2       0.63641    0.48785    0.65615   1.00
H2       0.66568    0.53048    0.66359   1.00
C5       0.60967    0.53200    0.69424   1.00
C5       0.58501    0.54775    0.66016   1.00
H2       0.89391    0.30714    0.87045   1.00
C5       0.94738    0.31088    0.83514   1.00
H2       0.91567    0.35677    0.86689   1.00
C5       0.82333    0.46663    0.53044   1.00
H2       0.86649    0.49449    0.56893   1.00
H2       0.84698    0.44707    0.58682   1.00
C5       0.65047    0.69503    0.93976   1.00
H2       0.62644    0.69789    0.88031   1.00
H2       0.61876    0.65063    0.90594   1.00
H2       0.60469    0.56398    0.63882   1.00
H2       0.57024    0.52239    0.64452   1.00
C5       0.55374    0.57583    0.67602   1.00
H2       0.94271    0.29884    0.80450   1.00
H2       0.97099    0.33429    0.83437   1.00
H2       0.95685    0.28626    0.85540   1.00
H2       0.79401    0.48180    0.52640   1.00
H2       0.84478    0.47771    0.50757   1.00
H2       0.81939    0.43379    0.52698   1.00
H2       0.67943    0.71111    0.93687   1.00
H2       0.62655    0.71664    0.94794   1.00
H2       0.65299    0.67181    0.96343   1.00
H2       0.56552    0.60693    0.67558   1.00
H2       0.52653    0.57402    0.65699   1.00
H2       0.54602    0.56734    0.70723   1.00
C5       0.82715    0.85061    0.36782   1.00
H2       0.84240    0.82645    0.35255   1.00
H2       0.84850    0.86252    0.38910   1.00
C5       0.81544    0.88216    0.33806   1.00
C5       0.85022    0.90903    0.32877   1.00
H2       0.79105    0.90008    0.34985   1.00
O3       0.70199    0.80206    0.52000   1.00
C4       0.75008    0.74959    0.47900   1.00
C3c      0.77621    0.77276    0.45757   1.00
H1       0.79697    0.79102    0.47275   1.00
C3d      0.72364    0.72558    0.45865   1.00
C3       0.77567    0.77323    0.41646   1.00
O2       0.80513    0.79287    0.39752   1.00
C3       0.72252    0.72654    0.41773   1.00
H1       0.70081    0.70867    0.40343   1.00
C2       0.74845    0.75012    0.39561   1.00
C5       0.66264    0.78991    0.52121   1.00
H2       0.65121    0.78824    0.55162   1.00
H2       0.65896    0.76068    0.50734   1.00
C5       0.63860    0.81982    0.49871   1.00
H2       0.65071    0.82230    0.46863   1.00
H2       0.64219    0.84881    0.51302   1.00
C5       0.59527    0.80802    0.49738   1.00
H2       0.58306    0.80523    0.52732   1.00
H2       0.59151    0.77973    0.48189   1.00
C5       0.57149    0.83927    0.47555   1.00
C5       0.71064    0.66776    0.48895   1.00
C5       0.79319    0.83150    0.38930   1.00
H2       0.73587    0.67088    0.50912   1.00
H2       0.72016    0.65074    0.46288   1.00
H2       0.78695    0.84744    0.41700   1.00
H2       0.76614    0.83261    0.37105   1.00
H2       0.80629    0.86886    0.30970   1.00
H2       0.71235    0.61871    0.55753   1.00
H2       0.71201    0.59088    0.51237   1.00
C2       0.74733    0.75023    0.60395   1.00
C3       0.77320    0.72511    0.58403   1.00
O2       0.79041    0.69421    0.60326   1.00
C3       0.72412    0.77617    0.58174   1.00
H1       0.70477    0.79647    0.59615   1.00
C3a      0.77456    0.72570    0.54287   1.00
H1       0.79287    0.70475    0.52798   1.00
C3b      0.72464    0.77582    0.54078   1.00
C4       0.74992    0.75041    0.52100   1.00
O3       0.69537    0.70449    0.47833   1.00
C5       0.82941    0.70331    0.61280   1.00
H2       0.84690    0.70986    0.58609   1.00
C5       0.84648    0.66769    0.63326   1.00
H2       0.83084    0.72897    0.63274   1.00
H2       0.85470    0.64581    0.61068   1.00
H2       0.82271    0.65429    0.65093   1.00
C5       0.88180    0.67762    0.65918   1.00
H2       0.90391    0.69371    0.64176   1.00
C5       0.90063    0.64023    0.67547   1.00
H2       0.87298    0.69562    0.68493   1.00
C5       0.67836    0.64537    0.50983   1.00
H2       0.65615    0.63641    0.48785   1.00
H2       0.66359    0.66568    0.53048   1.00
C5       0.69424    0.60967    0.53200   1.00
C5       0.66016    0.58501    0.54775   1.00
H2       0.87045    0.89391    0.30714   1.00
C5       0.83514    0.94738    0.31088   1.00
H2       0.86689    0.91567    0.35677   1.00
C5       0.53044    0.82333    0.46663   1.00
H2       0.56893    0.86649    0.49449   1.00
H2       0.58682    0.84698    0.44707   1.00
C5       0.93976    0.65047    0.69503   1.00
H2       0.88031    0.62644    0.69789   1.00
H2       0.90594    0.61876    0.65063   1.00
H2       0.63882    0.60469    0.56398   1.00
H2       0.64452    0.57024    0.52239   1.00
C5       0.67602    0.55374    0.57583   1.00
H2       0.80450    0.94271    0.29884   1.00
H2       0.83437    0.97099    0.33429   1.00
H2       0.85540    0.95685    0.28626   1.00
H2       0.52640    0.79401    0.48180   1.00
H2       0.50757    0.84478    0.47771   1.00
H2       0.52698    0.81939    0.43379   1.00
H2       0.93687    0.67943    0.71111   1.00
H2       0.94794    0.62655    0.71664   1.00
H2       0.96343    0.65299    0.67181   1.00
H2       0.67558    0.56552    0.60693   1.00
H2       0.65699    0.52653    0.57402   1.00
H2       0.70723    0.54602    0.56734   1.00
C5       0.32715    0.14939    1.13218   1.00
H2       0.34240    0.17355    1.14745   1.00
H2       0.34850    0.13748    1.11090   1.00
C5       0.31544    0.11784    1.16194   1.00
C5       0.35022    0.09097    1.17123   1.00
H2       0.29105    0.09992    1.15015   1.00
O3       0.20199    0.19794    0.98000   1.00
C4       0.25008    0.25041    1.02100   1.00
C3c      0.27621    0.22724    1.04243   1.00
H1       0.29697    0.20898    1.02725   1.00
C3d      0.22364    0.27442    1.04135   1.00
C3       0.27567    0.22677    1.08354   1.00
O2       0.30513    0.20713    1.10248   1.00
C3       0.22252    0.27346    1.08227   1.00
H1       0.20081    0.29133    1.09657   1.00
C2       0.24845    0.24988    1.10439   1.00
C5       0.16264    0.21009    0.97879   1.00
H2       0.15121    0.21176    0.94838   1.00
H2       0.15896    0.23932    0.99266   1.00
C5       0.13860    0.18018    1.00129   1.00
H2       0.15071    0.17770    1.03137   1.00
H2       0.14219    0.15119    0.98698   1.00
C5       0.09527    0.19198    1.00262   1.00
H2       0.08306    0.19477    0.97268   1.00
H2       0.09151    0.22027    1.01811   1.00
C5       0.07149    0.16073    1.02445   1.00
C5       0.21064    0.33224    1.01105   1.00
C5       0.29319    0.16850    1.11070   1.00
H2       0.23587    0.32912    0.99088   1.00
H2       0.22016    0.34926    1.03712   1.00
H2       0.28695    0.15256    1.08300   1.00
H2       0.26614    0.16739    1.12895   1.00
H2       0.30629    0.13114    1.19030   1.00
H2       0.21235    0.38129    0.94247   1.00
H2       0.21201    0.40912    0.98763   1.00
C2       0.24733    0.24977    0.89605   1.00
C3       0.27320    0.27489    0.91597   1.00
O2       0.29041    0.30579    0.89674   1.00
C3       0.22412    0.22383    0.91826   1.00
H1       0.20477    0.20353    0.90385   1.00
C3a      0.27456    0.27430    0.95713   1.00
H1       0.29287    0.29525    0.97202   1.00
C3b      0.22464    0.22418    0.95922   1.00
C4       0.24992    0.24959    0.97900   1.00
O3       0.19537    0.29551    1.02167   1.00
C5       0.32941    0.29669    0.88720   1.00
H2       0.34690    0.29014    0.91391   1.00
C5       0.34648    0.33231    0.86674   1.00
H2       0.33084    0.27103    0.86726   1.00
H2       0.35470    0.35419    0.88932   1.00
H2       0.32271    0.34571    0.84907   1.00
C5       0.38180    0.32238    0.84082   1.00
H2       0.40391    0.30629    0.85824   1.00
C5       0.40063    0.35977    0.82453   1.00
H2       0.37298    0.30438    0.81507   1.00
C5       0.17836    0.35463    0.99017   1.00
H2       0.15615    0.36359    1.01215   1.00
H2       0.16359    0.33432    0.96952   1.00
C5       0.19424    0.39033    0.96800   1.00
C5       0.16016    0.41499    0.95225   1.00
H2       0.37045    0.10609    1.19286   1.00
C5       0.33514    0.05262    1.18912   1.00
H2       0.36689    0.08433    1.14323   1.00
C5       0.03044    0.17667    1.03337   1.00
H2       0.06893    0.13351    1.00551   1.00
H2       0.08682    0.15302    1.05293   1.00
C5       0.43976    0.34953    0.80497   1.00
H2       0.38031    0.37356    0.80211   1.00
H2       0.40594    0.38124    0.84937   1.00
H2       0.13882    0.39531    0.93602   1.00
H2       0.14452    0.42976    0.97761   1.00
C5       0.17602    0.44626    0.92417   1.00
H2       0.30450    0.05729    1.20116   1.00
H2       0.33437    0.02901    1.16571   1.00
H2       0.35540    0.04315    1.21374   1.00
H2       0.02640    0.20599    1.01820   1.00
H2       0.00757    0.15522    1.02229   1.00
H2       0.02698    0.18061    1.06621   1.00
H2       0.43687    0.32057    0.78889   1.00
H2       0.44794    0.37345    0.78336   1.00
H2       0.46343    0.34701    0.82819   1.00
H2       0.17558    0.43448    0.89307   1.00
H2       0.15699    0.47347    0.92598   1.00
H2       0.20723    0.45398    0.93266   1.00
C5       0.14939    0.63218    0.82715   1.00
H2       0.17355    0.64745    0.84240   1.00
H2       0.13748    0.61090    0.84850   1.00
C5       0.11784    0.66194    0.81544   1.00
C5       0.09097    0.67123    0.85022   1.00
H2       0.09992    0.65015    0.79105   1.00
O3       0.19794    0.48000    0.70199   1.00
C4       0.25041    0.52100    0.75008   1.00
C3c      0.22724    0.54243    0.77621   1.00
H1       0.20898    0.52725    0.79697   1.00
C3d      0.27442    0.54135    0.72364   1.00
C3       0.22677    0.58354    0.77567   1.00
O2       0.20713    0.60248    0.80513   1.00
C3       0.27346    0.58227    0.72252   1.00
H1       0.29133    0.59657    0.70081   1.00
C2       0.24988    0.60439    0.74845   1.00
C5       0.21009    0.47879    0.66264   1.00
H2       0.21176    0.44838    0.65121   1.00
H2       0.23932    0.49266    0.65896   1.00
C5       0.18018    0.50129    0.63860   1.00
H2       0.17770    0.53137    0.65071   1.00
H2       0.15119    0.48698    0.64219   1.00
C5       0.19198    0.50262    0.59527   1.00
H2       0.19477    0.47268    0.58306   1.00
H2       0.22027    0.51811    0.59151   1.00
C5       0.16073    0.52445    0.57149   1.00
C5       0.33224    0.51105    0.71064   1.00
C5       0.16850    0.61070    0.79319   1.00
H2       0.32912    0.49088    0.73587   1.00
H2       0.34926    0.53712    0.72016   1.00
H2       0.15256    0.58300    0.78695   1.00
H2       0.16739    0.62895    0.76614   1.00
H2       0.13114    0.69030    0.80629   1.00
H2       0.38129    0.44247    0.71235   1.00
H2       0.40912    0.48763    0.71201   1.00
C2       0.24977    0.39605    0.74733   1.00
C3       0.27489    0.41597    0.77320   1.00
O2       0.30579    0.39674    0.79041   1.00
C3       0.22383    0.41826    0.72412   1.00
H1       0.20353    0.40385    0.70477   1.00
C3a      0.27430    0.45713    0.77456   1.00
H1       0.29525    0.47202    0.79287   1.00
C3b      0.22418    0.45922    0.72464   1.00
C4       0.24959    0.47900    0.74992   1.00
O3       0.29551    0.52167    0.69537   1.00
C5       0.29669    0.38720    0.82941   1.00
H2       0.29014    0.41391    0.84690   1.00
C5       0.33231    0.36674    0.84648   1.00
H2       0.27103    0.36726    0.83084   1.00
H2       0.35419    0.38932    0.85470   1.00
H2       0.34571    0.34907    0.82271   1.00
C5       0.32238    0.34082    0.88180   1.00
H2       0.30629    0.35824    0.90391   1.00
C5       0.35977    0.32453    0.90063   1.00
H2       0.30438    0.31507    0.87298   1.00
C5       0.35463    0.49017    0.67836   1.00
H2       0.36359    0.51215    0.65615   1.00
H2       0.33432    0.46952    0.66359   1.00
C5       0.39033    0.46800    0.69424   1.00
C5       0.41499    0.45225    0.66016   1.00
H2       0.10609    0.69286    0.87045   1.00
C5       0.05262    0.68912    0.83514   1.00
H2       0.08433    0.64323    0.86689   1.00
C5       0.17667    0.53337    0.53044   1.00
H2       0.13351    0.50551    0.56893   1.00
H2       0.15302    0.55293    0.58682   1.00
C5       0.34953    0.30497    0.93976   1.00
H2       0.37356    0.30211    0.88031   1.00
H2       0.38124    0.34937    0.90594   1.00
H2       0.39531    0.43602    0.63882   1.00
H2       0.42976    0.47761    0.64452   1.00
C5       0.44626    0.42417    0.67602   1.00
H2       0.05729    0.70116    0.80450   1.00
H2       0.02901    0.66571    0.83437   1.00
H2       0.04315    0.71374    0.85540   1.00
H2       0.20599    0.51820    0.52640   1.00
H2       0.15522    0.52229    0.50757   1.00
H2       0.18061    0.56621    0.52698   1.00
H2       0.32057    0.28889    0.93687   1.00
H2       0.37345    0.28336    0.94794   1.00
H2       0.34701    0.32819    0.96343   1.00
H2       0.43448    0.39307    0.67558   1.00
H2       0.47347    0.42598    0.65699   1.00
H2       0.45398    0.43266    0.70723   1.00
C5       -0.13218   0.32715    0.85061   1.00
H2       -0.14745   0.34240    0.82645   1.00
H2       -0.11090   0.34850    0.86252   1.00
C5       -0.16194   0.31544    0.88216   1.00
C5       -0.17123   0.35022    0.90903   1.00
H2       -0.15015   0.29105    0.90008   1.00
O3       0.02000    0.20199    0.80206   1.00
C4       -0.02100   0.25008    0.74959   1.00
C3c      -0.04243   0.27621    0.77276   1.00
H1       -0.02725   0.29697    0.79102   1.00
C3d      -0.04135   0.22364    0.72558   1.00
C3       -0.08354   0.27567    0.77323   1.00
O2       -0.10248   0.30513    0.79287   1.00
C3       -0.08227   0.22252    0.72654   1.00
H1       -0.09657   0.20081    0.70867   1.00
C2       -0.10439   0.24845    0.75012   1.00
C5       0.02121    0.16264    0.78991   1.00
H2       0.05162    0.15121    0.78824   1.00
H2       0.00734    0.15896    0.76068   1.00
C5       -0.00129   0.13860    0.81982   1.00
H2       -0.03137   0.15071    0.82230   1.00
H2       0.01302    0.14219    0.84881   1.00
C5       -0.00262   0.09527    0.80802   1.00
H2       0.02732    0.08306    0.80523   1.00
H2       -0.01811   0.09151    0.77973   1.00
C5       -0.02445   0.07149    0.83927   1.00
C5       -0.01105   0.21064    0.66776   1.00
C5       -0.11070   0.29319    0.83150   1.00
H2       0.00912    0.23587    0.67088   1.00
H2       -0.03712   0.22016    0.65074   1.00
H2       -0.08300   0.28695    0.84744   1.00
H2       -0.12895   0.26614    0.83261   1.00
H2       -0.19030   0.30629    0.86886   1.00
H2       0.05753    0.21235    0.61871   1.00
H2       0.01237    0.21201    0.59088   1.00
C2       0.10395    0.24733    0.75023   1.00
C3       0.08403    0.27320    0.72511   1.00
O2       0.10326    0.29041    0.69421   1.00
C3       0.08174    0.22412    0.77617   1.00
H1       0.09615    0.20477    0.79647   1.00
C3a      0.04287    0.27456    0.72570   1.00
H1       0.02798    0.29287    0.70475   1.00
C3b      0.04078    0.22464    0.77582   1.00
C4       0.02100    0.24992    0.75041   1.00
O3       -0.02167   0.19537    0.70449   1.00
C5       0.11280    0.32941    0.70331   1.00
H2       0.08609    0.34690    0.70986   1.00
C5       0.13326    0.34648    0.66769   1.00
H2       0.13274    0.33084    0.72897   1.00
H2       0.11068    0.35470    0.64581   1.00
H2       0.15093    0.32271    0.65429   1.00
C5       0.15918    0.38180    0.67762   1.00
H2       0.14176    0.40391    0.69371   1.00
C5       0.17547    0.40063    0.64023   1.00
H2       0.18493    0.37298    0.69562   1.00
C5       0.00983    0.17836    0.64537   1.00
H2       -0.01215   0.15615    0.63641   1.00
H2       0.03048    0.16359    0.66568   1.00
C5       0.03200    0.19424    0.60967   1.00
C5       0.04775    0.16016    0.58501   1.00
H2       -0.19286   0.37045    0.89391   1.00
C5       -0.18912   0.33514    0.94738   1.00
H2       -0.14323   0.36689    0.91567   1.00
C5       -0.03337   0.03044    0.82333   1.00
H2       -0.00551   0.06893    0.86649   1.00
H2       -0.05293   0.08682    0.84698   1.00
C5       0.19503    0.43976    0.65047   1.00
H2       0.19789    0.38031    0.62644   1.00
H2       0.15063    0.40594    0.61876   1.00
H2       0.06398    0.13882    0.60469   1.00
H2       0.02239    0.14452    0.57024   1.00
C5       0.07583    0.17602    0.55374   1.00
H2       -0.20116   0.30450    0.94271   1.00
H2       -0.16571   0.33437    0.97099   1.00
H2       -0.21374   0.35540    0.95685   1.00
H2       -0.01820   0.02640    0.79401   1.00
H2       -0.02229   0.00757    0.84478   1.00
H2       -0.06621   0.02698    0.81939   1.00
H2       0.21111    0.43687    0.67943   1.00
H2       0.21664    0.44794    0.62655   1.00
H2       0.17181    0.46343    0.65299   1.00
H2       0.10693    0.17558    0.56552   1.00
H2       0.07402    0.15699    0.52653   1.00
H2       0.06734    0.20723    0.54602   1.00
C5       0.63218    0.32715    0.64939   1.00
H2       0.64745    0.34240    0.67355   1.00
H2       0.61090    0.34850    0.63748   1.00
C5       0.66194    0.31544    0.61784   1.00
C5       0.67123    0.35022    0.59097   1.00
H2       0.65015    0.29105    0.59992   1.00
O3       0.48000    0.20199    0.69794   1.00
C4       0.52100    0.25008    0.75041   1.00
C3c      0.54243    0.27621    0.72724   1.00
H1       0.52725    0.29697    0.70898   1.00
C3d      0.54135    0.22364    0.77442   1.00
C3       0.58354    0.27567    0.72677   1.00
O2       0.60248    0.30513    0.70713   1.00
C3       0.58227    0.22252    0.77346   1.00
H1       0.59657    0.20081    0.79133   1.00
C2       0.60439    0.24845    0.74988   1.00
C5       0.47879    0.16264    0.71009   1.00
H2       0.44838    0.15121    0.71176   1.00
H2       0.49266    0.15896    0.73932   1.00
C5       0.50129    0.13860    0.68018   1.00
H2       0.53137    0.15071    0.67770   1.00
H2       0.48698    0.14219    0.65119   1.00
C5       0.50262    0.09527    0.69198   1.00
H2       0.47268    0.08306    0.69477   1.00
H2       0.51811    0.09151    0.72027   1.00
C5       0.52445    0.07149    0.66073   1.00
C5       0.51105    0.21064    0.83224   1.00
C5       0.61070    0.29319    0.66850   1.00
H2       0.49088    0.23587    0.82912   1.00
H2       0.53712    0.22016    0.84926   1.00
H2       0.58300    0.28695    0.65256   1.00
H2       0.62895    0.26614    0.66739   1.00
H2       0.69030    0.30629    0.63114   1.00
H2       0.44247    0.21235    0.88129   1.00
H2       0.48763    0.21201    0.90912   1.00
C2       0.39605    0.24733    0.74977   1.00
C3       0.41597    0.27320    0.77489   1.00
O2       0.39674    0.29041    0.80579   1.00
C3       0.41826    0.22412    0.72383   1.00
H1       0.40385    0.20477    0.70353   1.00
C3a      0.45713    0.27456    0.77430   1.00
H1       0.47202    0.29287    0.79525   1.00
C3b      0.45922    0.22464    0.72418   1.00
C4       0.47900    0.24992    0.74959   1.00
O3       0.52167    0.19537    0.79551   1.00
C5       0.38720    0.32941    0.79669   1.00
H2       0.41391    0.34690    0.79014   1.00
C5       0.36674    0.34648    0.83231   1.00
H2       0.36726    0.33084    0.77103   1.00
H2       0.38932    0.35470    0.85419   1.00
H2       0.34907    0.32271    0.84571   1.00
C5       0.34082    0.38180    0.82238   1.00
H2       0.35824    0.40391    0.80629   1.00
C5       0.32453    0.40063    0.85977   1.00
H2       0.31507    0.37298    0.80438   1.00
C5       0.49017    0.17836    0.85463   1.00
H2       0.51215    0.15615    0.86359   1.00
H2       0.46952    0.16359    0.83432   1.00
C5       0.46800    0.19424    0.89033   1.00
C5       0.45225    0.16016    0.91499   1.00
H2       0.69286    0.37045    0.60609   1.00
C5       0.68912    0.33514    0.55262   1.00
H2       0.64323    0.36689    0.58433   1.00
C5       0.53337    0.03044    0.67667   1.00
H2       0.50551    0.06893    0.63351   1.00
H2       0.55293    0.08682    0.65302   1.00
C5       0.30497    0.43976    0.84953   1.00
H2       0.30211    0.38031    0.87356   1.00
H2       0.34937    0.40594    0.88124   1.00
H2       0.43602    0.13882    0.89531   1.00
H2       0.47761    0.14452    0.92976   1.00
C5       0.42417    0.17602    0.94626   1.00
H2       0.70116    0.30450    0.55729   1.00
H2       0.66571    0.33437    0.52901   1.00
H2       0.71374    0.35540    0.54315   1.00
H2       0.51820    0.02640    0.70599   1.00
H2       0.52229    0.00757    0.65522   1.00
H2       0.56621    0.02698    0.68061   1.00
H2       0.28889    0.43687    0.82057   1.00
H2       0.28336    0.44794    0.87345   1.00
H2       0.32819    0.46343    0.84701   1.00
H2       0.39307    0.17558    0.93448   1.00
H2       0.42598    0.15699    0.97347   1.00
H2       0.43266    0.20723    0.95398   1.00
C5       0.35061    -0.13218   0.82715   1.00
H2       0.32645    -0.14745   0.84240   1.00
H2       0.36252    -0.11090   0.84850   1.00
C5       0.38216    -0.16194   0.81544   1.00
C5       0.40903    -0.17123   0.85022   1.00
H2       0.40008    -0.15015   0.79105   1.00
O3       0.30206    0.02000    0.70199   1.00
C4       0.24959    -0.02100   0.75008   1.00
C3c      0.27276    -0.04243   0.77621   1.00
H1       0.29102    -0.02725   0.79697   1.00
C3d      0.22558    -0.04135   0.72364   1.00
C3       0.27323    -0.08354   0.77567   1.00
O2       0.29287    -0.10248   0.80513   1.00
C3       0.22654    -0.08227   0.72252   1.00
H1       0.20867    -0.09657   0.70081   1.00
C2       0.25012    -0.10439   0.74845   1.00
C5       0.28991    0.02121    0.66264   1.00
H2       0.28824    0.05162    0.65121   1.00
H2       0.26068    0.00734    0.65896   1.00
C5       0.31982    -0.00129   0.63860   1.00
H2       0.32230    -0.03137   0.65071   1.00
H2       0.34881    0.01302    0.64219   1.00
C5       0.30802    -0.00262   0.59527   1.00
H2       0.30523    0.02732    0.58306   1.00
H2       0.27973    -0.01811   0.59151   1.00
C5       0.33927    -0.02445   0.57149   1.00
C5       0.16776    -0.01105   0.71064   1.00
C5       0.33150    -0.11070   0.79319   1.00
H2       0.17088    0.00912    0.73587   1.00
H2       0.15074    -0.03712   0.72016   1.00
H2       0.34744    -0.08300   0.78695   1.00
H2       0.33261    -0.12895   0.76614   1.00
H2       0.36886    -0.19030   0.80629   1.00
H2       0.11871    0.05753    0.71235   1.00
H2       0.09088    0.01237    0.71201   1.00
C2       0.25023    0.10395    0.74733   1.00
C3       0.22511    0.08403    0.77320   1.00
O2       0.19421    0.10326    0.79041   1.00
C3       0.27617    0.08174    0.72412   1.00
H1       0.29647    0.09615    0.70477   1.00
C3a      0.22570    0.04287    0.77456   1.00
H1       0.20475    0.02798    0.79287   1.00
C3b      0.27582    0.04078    0.72464   1.00
C4       0.25041    0.02100    0.74992   1.00
O3       0.20449    -0.02167   0.69537   1.00
C5       0.20331    0.11280    0.82941   1.00
H2       0.20986    0.08609    0.84690   1.00
C5       0.16769    0.13326    0.84648   1.00
H2       0.22897    0.13274    0.83084   1.00
H2       0.14581    0.11068    0.85470   1.00
H2       0.15429    0.15093    0.82271   1.00
C5       0.17762    0.15918    0.88180   1.00
H2       0.19371    0.14176    0.90391   1.00
C5       0.14023    0.17547    0.90063   1.00
H2       0.19562    0.18493    0.87298   1.00
C5       0.14537    0.00983    0.67836   1.00
H2       0.13641    -0.01215   0.65615   1.00
H2       0.16568    0.03048    0.66359   1.00
C5       0.10967    0.03200    0.69424   1.00
C5       0.08501    0.04775    0.66016   1.00
H2       0.39391    -0.19286   0.87045   1.00
C5       0.44738    -0.18912   0.83514   1.00
H2       0.41567    -0.14323   0.86689   1.00
C5       0.32333    -0.03337   0.53044   1.00
H2       0.36649    -0.00551   0.56893   1.00
H2       0.34698    -0.05293   0.58682   1.00
C5       0.15047    0.19503    0.93976   1.00
H2       0.12644    0.19789    0.88031   1.00
H2       0.11876    0.15063    0.90594   1.00
H2       0.10469    0.06398    0.63882   1.00
H2       0.07024    0.02239    0.64452   1.00
C5       0.05374    0.07583    0.67602   1.00
H2       0.44271    -0.20116   0.80450   1.00
H2       0.47099    -0.16571   0.83437   1.00
H2       0.45685    -0.21374   0.85540   1.00
H2       0.29401    -0.01820   0.52640   1.00
H2       0.34478    -0.02229   0.50757   1.00
H2       0.31939    -0.06621   0.52698   1.00
H2       0.17943    0.21111    0.93687   1.00
H2       0.12655    0.21664    0.94794   1.00
H2       0.15299    0.17181    0.96343   1.00
H2       0.06552    0.10693    0.67558   1.00
H2       0.02653    0.07402    0.65699   1.00
H2       0.04602    0.06734    0.70723   1.00
C5       0.32715    0.35061    0.36782   1.00
H2       0.34240    0.32645    0.35255   1.00
H2       0.34850    0.36252    0.38910   1.00
C5       0.31544    0.38216    0.33806   1.00
C5       0.35022    0.40903    0.32877   1.00
H2       0.29105    0.40008    0.34985   1.00
O3       0.20199    0.30206    0.52000   1.00
C4       0.25008    0.24959    0.47900   1.00
C3c      0.27621    0.27276    0.45757   1.00
H1       0.29697    0.29102    0.47275   1.00
C3d      0.22364    0.22558    0.45865   1.00
C3       0.27567    0.27323    0.41646   1.00
O2       0.30513    0.29287    0.39752   1.00
C3       0.22252    0.22654    0.41773   1.00
H1       0.20081    0.20867    0.40343   1.00
C2       0.24845    0.25012    0.39561   1.00
C5       0.16264    0.28991    0.52121   1.00
H2       0.15121    0.28824    0.55162   1.00
H2       0.15896    0.26068    0.50734   1.00
C5       0.13860    0.31982    0.49871   1.00
H2       0.15071    0.32230    0.46863   1.00
H2       0.14219    0.34881    0.51302   1.00
C5       0.09527    0.30802    0.49738   1.00
H2       0.08306    0.30523    0.52732   1.00
H2       0.09151    0.27973    0.48189   1.00
C5       0.07149    0.33927    0.47555   1.00
C5       0.21064    0.16776    0.48895   1.00
C5       0.29319    0.33150    0.38930   1.00
H2       0.23587    0.17088    0.50912   1.00
H2       0.22016    0.15074    0.46288   1.00
H2       0.28695    0.34744    0.41700   1.00
H2       0.26614    0.33261    0.37105   1.00
H2       0.30629    0.36886    0.30970   1.00
H2       0.21235    0.11871    0.55753   1.00
H2       0.21201    0.09088    0.51237   1.00
C2       0.24733    0.25023    0.60395   1.00
C3       0.27320    0.22511    0.58403   1.00
O2       0.29041    0.19421    0.60326   1.00
C3       0.22412    0.27617    0.58174   1.00
H1       0.20477    0.29647    0.59615   1.00
C3a      0.27456    0.22570    0.54287   1.00
H1       0.29287    0.20475    0.52798   1.00
C3b      0.22464    0.27582    0.54078   1.00
C4       0.24992    0.25041    0.52100   1.00
O3       0.19537    0.20449    0.47833   1.00
C5       0.32941    0.20331    0.61280   1.00
H2       0.34690    0.20986    0.58609   1.00
C5       0.34648    0.16769    0.63326   1.00
H2       0.33084    0.22897    0.63274   1.00
H2       0.35470    0.14581    0.61068   1.00
H2       0.32271    0.15429    0.65093   1.00
C5       0.38180    0.17762    0.65918   1.00
H2       0.40391    0.19371    0.64176   1.00
C5       0.40063    0.14023    0.67547   1.00
H2       0.37298    0.19562    0.68493   1.00
C5       0.17836    0.14537    0.50983   1.00
H2       0.15615    0.13641    0.48785   1.00
H2       0.16359    0.16568    0.53048   1.00
C5       0.19424    0.10967    0.53200   1.00
C5       0.16016    0.08501    0.54775   1.00
H2       0.37045    0.39391    0.30714   1.00
C5       0.33514    0.44738    0.31088   1.00
H2       0.36689    0.41567    0.35677   1.00
C5       0.03044    0.32333    0.46663   1.00
H2       0.06893    0.36649    0.49449   1.00
H2       0.08682    0.34698    0.44707   1.00
C5       0.43976    0.15047    0.69503   1.00
H2       0.38031    0.12644    0.69789   1.00
H2       0.40594    0.11876    0.65063   1.00
H2       0.13882    0.10469    0.56398   1.00
H2       0.14452    0.07024    0.52239   1.00
C5       0.17602    0.05374    0.57583   1.00
H2       0.30450    0.44271    0.29884   1.00
H2       0.33437    0.47099    0.33429   1.00
H2       0.35540    0.45685    0.28626   1.00
H2       0.02640    0.29401    0.48180   1.00
H2       0.00757    0.34478    0.47771   1.00
H2       0.02698    0.31939    0.43379   1.00
H2       0.43687    0.17943    0.71111   1.00
H2       0.44794    0.12655    0.71664   1.00
H2       0.46343    0.15299    0.67181   1.00
H2       0.17558    0.06552    0.60693   1.00
H2       0.15699    0.02653    0.57402   1.00
H2       0.20723    0.04602    0.56734   1.00
C5       0.32715    0.64939    0.63218   1.00
H2       0.34240    0.67355    0.64745   1.00
H2       0.34850    0.63748    0.61090   1.00
C5       0.31544    0.61784    0.66194   1.00
C5       0.35022    0.59097    0.67123   1.00
H2       0.29105    0.59992    0.65015   1.00
O3       0.20199    0.69794    0.48000   1.00
C4       0.25008    0.75041    0.52100   1.00
C3c      0.27621    0.72724    0.54243   1.00
H1       0.29697    0.70898    0.52725   1.00
C3d      0.22364    0.77442    0.54135   1.00
C3       0.27567    0.72677    0.58354   1.00
O2       0.30513    0.70713    0.60248   1.00
C3       0.22252    0.77346    0.58227   1.00
H1       0.20081    0.79133    0.59657   1.00
C2       0.24845    0.74988    0.60439   1.00
C5       0.16264    0.71009    0.47879   1.00
H2       0.15121    0.71176    0.44838   1.00
H2       0.15896    0.73932    0.49266   1.00
C5       0.13860    0.68018    0.50129   1.00
H2       0.15071    0.67770    0.53137   1.00
H2       0.14219    0.65119    0.48698   1.00
C5       0.09527    0.69198    0.50262   1.00
H2       0.08306    0.69477    0.47268   1.00
H2       0.09151    0.72027    0.51811   1.00
C5       0.07149    0.66073    0.52445   1.00
C5       0.21064    0.83224    0.51105   1.00
C5       0.29319    0.66850    0.61070   1.00
H2       0.23587    0.82912    0.49088   1.00
H2       0.22016    0.84926    0.53712   1.00
H2       0.28695    0.65256    0.58300   1.00
H2       0.26614    0.66739    0.62895   1.00
H2       0.30629    0.63114    0.69030   1.00
H2       0.21235    0.88129    0.44247   1.00
H2       0.21201    0.90912    0.48763   1.00
C2       0.24733    0.74977    0.39605   1.00
C3       0.27320    0.77489    0.41597   1.00
O2       0.29041    0.80579    0.39674   1.00
C3       0.22412    0.72383    0.41826   1.00
H1       0.20477    0.70353    0.40385   1.00
C3a      0.27456    0.77430    0.45713   1.00
H1       0.29287    0.79525    0.47202   1.00
C3b      0.22464    0.72418    0.45922   1.00
C4       0.24992    0.74959    0.47900   1.00
O3       0.19537    0.79551    0.52167   1.00
C5       0.32941    0.79669    0.38720   1.00
H2       0.34690    0.79014    0.41391   1.00
C5       0.34648    0.83231    0.36674   1.00
H2       0.33084    0.77103    0.36726   1.00
H2       0.35470    0.85419    0.38932   1.00
H2       0.32271    0.84571    0.34907   1.00
C5       0.38180    0.82238    0.34082   1.00
H2       0.40391    0.80629    0.35824   1.00
C5       0.40063    0.85977    0.32453   1.00
H2       0.37298    0.80438    0.31507   1.00
C5       0.17836    0.85463    0.49017   1.00
H2       0.15615    0.86359    0.51215   1.00
H2       0.16359    0.83432    0.46952   1.00
C5       0.19424    0.89033    0.46800   1.00
C5       0.16016    0.91499    0.45225   1.00
H2       0.37045    0.60609    0.69286   1.00
C5       0.33514    0.55262    0.68912   1.00
H2       0.36689    0.58433    0.64323   1.00
C5       0.03044    0.67667    0.53337   1.00
H2       0.06893    0.63351    0.50551   1.00
H2       0.08682    0.65302    0.55293   1.00
C5       0.43976    0.84953    0.30497   1.00
H2       0.38031    0.87356    0.30211   1.00
H2       0.40594    0.88124    0.34937   1.00
H2       0.13882    0.89531    0.43602   1.00
H2       0.14452    0.92976    0.47761   1.00
C5       0.17602    0.94626    0.42417   1.00
H2       0.30450    0.55729    0.70116   1.00
H2       0.33437    0.52901    0.66571   1.00
H2       0.35540    0.54315    0.71374   1.00
H2       0.02640    0.70599    0.51820   1.00
H2       0.00757    0.65522    0.52229   1.00
H2       0.02698    0.68061    0.56621   1.00
H2       0.43687    0.82057    0.28889   1.00
H2       0.44794    0.87345    0.28336   1.00
H2       0.46343    0.84701    0.32819   1.00
H2       0.17558    0.93448    0.39307   1.00
H2       0.15699    0.97347    0.42598   1.00
H2       0.20723    0.95398    0.43266   1.00
C5       0.14939    1.13218    0.32715   1.00
H2       0.17355    1.14745    0.34240   1.00
H2       0.13748    1.11090    0.34850   1.00
C5       0.11784    1.16194    0.31544   1.00
C5       0.09097    1.17123    0.35022   1.00
H2       0.09992    1.15015    0.29105   1.00
O3       0.19794    0.98000    0.20199   1.00
C4       0.25041    1.02100    0.25008   1.00
C3c      0.22724    1.04243    0.27621   1.00
H1       0.20898    1.02725    0.29697   1.00
C3d      0.27442    1.04135    0.22364   1.00
C3       0.22677    1.08354    0.27567   1.00
O2       0.20713    1.10248    0.30513   1.00
C3       0.27346    1.08227    0.22252   1.00
H1       0.29133    1.09657    0.20081   1.00
C2       0.24988    1.10439    0.24845   1.00
C5       0.21009    0.97879    0.16264   1.00
H2       0.21176    0.94838    0.15121   1.00
H2       0.23932    0.99266    0.15896   1.00
C5       0.18018    1.00129    0.13860   1.00
H2       0.17770    1.03137    0.15071   1.00
H2       0.15119    0.98698    0.14219   1.00
C5       0.19198    1.00262    0.09527   1.00
H2       0.19477    0.97268    0.08306   1.00
H2       0.22027    1.01811    0.09151   1.00
C5       0.16073    1.02445    0.07149   1.00
C5       0.33224    1.01105    0.21064   1.00
C5       0.16850    1.11070    0.29319   1.00
H2       0.32912    0.99088    0.23587   1.00
H2       0.34926    1.03712    0.22016   1.00
H2       0.15256    1.08300    0.28695   1.00
H2       0.16739    1.12895    0.26614   1.00
H2       0.13114    1.19030    0.30629   1.00
H2       0.38129    0.94247    0.21235   1.00
H2       0.40912    0.98763    0.21201   1.00
C2       0.24977    0.89605    0.24733   1.00
C3       0.27489    0.91597    0.27320   1.00
O2       0.30579    0.89674    0.29041   1.00
C3       0.22383    0.91826    0.22412   1.00
H1       0.20353    0.90385    0.20477   1.00
C3a      0.27430    0.95713    0.27456   1.00
H1       0.29525    0.97202    0.29287   1.00
C3b      0.22418    0.95922    0.22464   1.00
C4       0.24959    0.97900    0.24992   1.00
O3       0.29551    1.02167    0.19537   1.00
C5       0.29669    0.88720    0.32941   1.00
H2       0.29014    0.91391    0.34690   1.00
C5       0.33231    0.86674    0.34648   1.00
H2       0.27103    0.86726    0.33084   1.00
H2       0.35419    0.88932    0.35470   1.00
H2       0.34571    0.84907    0.32271   1.00
C5       0.32238    0.84082    0.38180   1.00
H2       0.30629    0.85824    0.40391   1.00
C5       0.35977    0.82453    0.40063   1.00
H2       0.30438    0.81507    0.37298   1.00
C5       0.35463    0.99017    0.17836   1.00
H2       0.36359    1.01215    0.15615   1.00
H2       0.33432    0.96952    0.16359   1.00
C5       0.39033    0.96800    0.19424   1.00
C5       0.41499    0.95225    0.16016   1.00
H2       0.10609    1.19286    0.37045   1.00
C5       0.05262    1.18912    0.33514   1.00
H2       0.08433    1.14323    0.36689   1.00
C5       0.17667    1.03337    0.03044   1.00
H2       0.13351    1.00551    0.06893   1.00
H2       0.15302    1.05293    0.08682   1.00
C5       0.34953    0.80497    0.43976   1.00
H2       0.37356    0.80211    0.38031   1.00
H2       0.38124    0.84937    0.40594   1.00
H2       0.39531    0.93602    0.13882   1.00
H2       0.42976    0.97761    0.14452   1.00
C5       0.44626    0.92417    0.17602   1.00
H2       0.05729    1.20116    0.30450   1.00
H2       0.02901    1.16571    0.33437   1.00
H2       0.04315    1.21374    0.35540   1.00
H2       0.20599    1.01820    0.02640   1.00
H2       0.15522    1.02229    0.00757   1.00
H2       0.18061    1.06621    0.02698   1.00
H2       0.32057    0.78889    0.43687   1.00
H2       0.37345    0.78336    0.44794   1.00
H2       0.34701    0.82819    0.46343   1.00
H2       0.43448    0.89307    0.17558   1.00
H2       0.47347    0.92598    0.15699   1.00
H2       0.45398    0.93266    0.20723   1.00
C5       -0.13218   0.82715    0.35061   1.00
H2       -0.14745   0.84240    0.32645   1.00
H2       -0.11090   0.84850    0.36252   1.00
C5       -0.16194   0.81544    0.38216   1.00
C5       -0.17123   0.85022    0.40903   1.00
H2       -0.15015   0.79105    0.40008   1.00
O3       0.02000    0.70199    0.30206   1.00
C4       -0.02100   0.75008    0.24959   1.00
C3c      -0.04243   0.77621    0.27276   1.00
H1       -0.02725   0.79697    0.29102   1.00
C3d      -0.04135   0.72364    0.22558   1.00
C3       -0.08354   0.77567    0.27323   1.00
O2       -0.10248   0.80513    0.29287   1.00
C3       -0.08227   0.72252    0.22654   1.00
H1       -0.09657   0.70081    0.20867   1.00
C2       -0.10439   0.74845    0.25012   1.00
C5       0.02121    0.66264    0.28991   1.00
H2       0.05162    0.65121    0.28824   1.00
H2       0.00734    0.65896    0.26068   1.00
C5       -0.00129   0.63860    0.31982   1.00
H2       -0.03137   0.65071    0.32230   1.00
H2       0.01302    0.64219    0.34881   1.00
C5       -0.00262   0.59527    0.30802   1.00
H2       0.02732    0.58306    0.30523   1.00
H2       -0.01811   0.59151    0.27973   1.00
C5       -0.02445   0.57149    0.33927   1.00
C5       -0.01105   0.71064    0.16776   1.00
C5       -0.11070   0.79319    0.33150   1.00
H2       0.00912    0.73587    0.17088   1.00
H2       -0.03712   0.72016    0.15074   1.00
H2       -0.08300   0.78695    0.34744   1.00
H2       -0.12895   0.76614    0.33261   1.00
H2       -0.19030   0.80629    0.36886   1.00
H2       0.05753    0.71235    0.11871   1.00
H2       0.01237    0.71201    0.09088   1.00
C2       0.10395    0.74733    0.25023   1.00
C3       0.08403    0.77320    0.22511   1.00
O2       0.10326    0.79041    0.19421   1.00
C3       0.08174    0.72412    0.27617   1.00
H1       0.09615    0.70477    0.29647   1.00
C3a      0.04287    0.77456    0.22570   1.00
H1       0.02798    0.79287    0.20475   1.00
C3b      0.04078    0.72464    0.27582   1.00
C4       0.02100    0.74992    0.25041   1.00
O3       -0.02167   0.69537    0.20449   1.00
C5       0.11280    0.82941    0.20331   1.00
H2       0.08609    0.84690    0.20986   1.00
C5       0.13326    0.84648    0.16769   1.00
H2       0.13274    0.83084    0.22897   1.00
H2       0.11068    0.85470    0.14581   1.00
H2       0.15093    0.82271    0.15429   1.00
C5       0.15918    0.88180    0.17762   1.00
H2       0.14176    0.90391    0.19371   1.00
C5       0.17547    0.90063    0.14023   1.00
H2       0.18493    0.87298    0.19562   1.00
C5       0.00983    0.67836    0.14537   1.00
H2       -0.01215   0.65615    0.13641   1.00
H2       0.03048    0.66359    0.16568   1.00
C5       0.03200    0.69424    0.10967   1.00
C5       0.04775    0.66016    0.08501   1.00
H2       -0.19286   0.87045    0.39391   1.00
C5       -0.18912   0.83514    0.44738   1.00
H2       -0.14323   0.86689    0.41567   1.00
C5       -0.03337   0.53044    0.32333   1.00
H2       -0.00551   0.56893    0.36649   1.00
H2       -0.05293   0.58682    0.34698   1.00
C5       0.19503    0.93976    0.15047   1.00
H2       0.19789    0.88031    0.12644   1.00
H2       0.15063    0.90594    0.11876   1.00
H2       0.06398    0.63882    0.10469   1.00
H2       0.02239    0.64452    0.07024   1.00
C5       0.07583    0.67602    0.05374   1.00
H2       -0.20116   0.80450    0.44271   1.00
H2       -0.16571   0.83437    0.47099   1.00
H2       -0.21374   0.85540    0.45685   1.00
H2       -0.01820   0.52640    0.29401   1.00
H2       -0.02229   0.50757    0.34478   1.00
H2       -0.06621   0.52698    0.31939   1.00
H2       0.21111    0.93687    0.17943   1.00
H2       0.21664    0.94794    0.12655   1.00
H2       0.17181    0.96343    0.15299   1.00
H2       0.10693    0.67558    0.06552   1.00
H2       0.07402    0.65699    0.02653   1.00
H2       0.06734    0.70723    0.04602   1.00
C5       0.63218    0.82715    0.14939   1.00
H2       0.64745    0.84240    0.17355   1.00
H2       0.61090    0.84850    0.13748   1.00
C5       0.66194    0.81544    0.11784   1.00
C5       0.67123    0.85022    0.09097   1.00
H2       0.65015    0.79105    0.09992   1.00
O3       0.48000    0.70199    0.19794   1.00
C4       0.52100    0.75008    0.25041   1.00
C3c      0.54243    0.77621    0.22724   1.00
H1       0.52725    0.79697    0.20898   1.00
C3d      0.54135    0.72364    0.27442   1.00
C3       0.58354    0.77567    0.22677   1.00
O2       0.60248    0.80513    0.20713   1.00
C3       0.58227    0.72252    0.27346   1.00
H1       0.59657    0.70081    0.29133   1.00
C2       0.60439    0.74845    0.24988   1.00
C5       0.47879    0.66264    0.21009   1.00
H2       0.44838    0.65121    0.21176   1.00
H2       0.49266    0.65896    0.23932   1.00
C5       0.50129    0.63860    0.18018   1.00
H2       0.53137    0.65071    0.17770   1.00
H2       0.48698    0.64219    0.15119   1.00
C5       0.50262    0.59527    0.19198   1.00
H2       0.47268    0.58306    0.19477   1.00
H2       0.51811    0.59151    0.22027   1.00
C5       0.52445    0.57149    0.16073   1.00
C5       0.51105    0.71064    0.33224   1.00
C5       0.61070    0.79319    0.16850   1.00
H2       0.49088    0.73587    0.32912   1.00
H2       0.53712    0.72016    0.34926   1.00
H2       0.58300    0.78695    0.15256   1.00
H2       0.62895    0.76614    0.16739   1.00
H2       0.69030    0.80629    0.13114   1.00
H2       0.44247    0.71235    0.38129   1.00
H2       0.48763    0.71201    0.40912   1.00
C2       0.39605    0.74733    0.24977   1.00
C3       0.41597    0.77320    0.27489   1.00
O2       0.39674    0.79041    0.30579   1.00
C3       0.41826    0.72412    0.22383   1.00
H1       0.40385    0.70477    0.20353   1.00
C3a      0.45713    0.77456    0.27430   1.00
H1       0.47202    0.79287    0.29525   1.00
C3b      0.45922    0.72464    0.22418   1.00
C4       0.47900    0.74992    0.24959   1.00
O3       0.52167    0.69537    0.29551   1.00
C5       0.38720    0.82941    0.29669   1.00
H2       0.41391    0.84690    0.29014   1.00
C5       0.36674    0.84648    0.33231   1.00
H2       0.36726    0.83084    0.27103   1.00
H2       0.38932    0.85470    0.35419   1.00
H2       0.34907    0.82271    0.34571   1.00
C5       0.34082    0.88180    0.32238   1.00
H2       0.35824    0.90391    0.30629   1.00
C5       0.32453    0.90063    0.35977   1.00
H2       0.31507    0.87298    0.30438   1.00
C5       0.49017    0.67836    0.35463   1.00
H2       0.51215    0.65615    0.36359   1.00
H2       0.46952    0.66359    0.33432   1.00
C5       0.46800    0.69424    0.39033   1.00
C5       0.45225    0.66016    0.41499   1.00
H2       0.69286    0.87045    0.10609   1.00
C5       0.68912    0.83514    0.05262   1.00
H2       0.64323    0.86689    0.08433   1.00
C5       0.53337    0.53044    0.17667   1.00
H2       0.50551    0.56893    0.13351   1.00
H2       0.55293    0.58682    0.15302   1.00
C5       0.30497    0.93976    0.34953   1.00
H2       0.30211    0.88031    0.37356   1.00
H2       0.34937    0.90594    0.38124   1.00
H2       0.43602    0.63882    0.39531   1.00
H2       0.47761    0.64452    0.42976   1.00
C5       0.42417    0.67602    0.44626   1.00
H2       0.70116    0.80450    0.05729   1.00
H2       0.66571    0.83437    0.02901   1.00
H2       0.71374    0.85540    0.04315   1.00
H2       0.51820    0.52640    0.20599   1.00
H2       0.52229    0.50757    0.15522   1.00
H2       0.56621    0.52698    0.18061   1.00
H2       0.28889    0.93687    0.32057   1.00
H2       0.28336    0.94794    0.37345   1.00
H2       0.32819    0.96343    0.34701   1.00
H2       0.39307    0.67558    0.43448   1.00
H2       0.42598    0.65699    0.47347   1.00
H2       0.43266    0.70723    0.45398   1.00
C5       0.35061    0.36782    0.32715   1.00
H2       0.32645    0.35255    0.34240   1.00
H2       0.36252    0.38910    0.34850   1.00
C5       0.38216    0.33806    0.31544   1.00
C5       0.40903    0.32877    0.35022   1.00
H2       0.40008    0.34985    0.29105   1.00
O3       0.30206    0.52000    0.20199   1.00
C4       0.24959    0.47900    0.25008   1.00
C3c      0.27276    0.45757    0.27621   1.00
H1       0.29102    0.47275    0.29697   1.00
C3d      0.22558    0.45865    0.22364   1.00
C3       0.27323    0.41646    0.27567   1.00
O2       0.29287    0.39752    0.30513   1.00
C3       0.22654    0.41773    0.22252   1.00
H1       0.20867    0.40343    0.20081   1.00
C2       0.25012    0.39561    0.24845   1.00
C5       0.28991    0.52121    0.16264   1.00
H2       0.28824    0.55162    0.15121   1.00
H2       0.26068    0.50734    0.15896   1.00
C5       0.31982    0.49871    0.13860   1.00
H2       0.32230    0.46863    0.15071   1.00
H2       0.34881    0.51302    0.14219   1.00
C5       0.30802    0.49738    0.09527   1.00
H2       0.30523    0.52732    0.08306   1.00
H2       0.27973    0.48189    0.09151   1.00
C5       0.33927    0.47555    0.07149   1.00
C5       0.16776    0.48895    0.21064   1.00
C5       0.33150    0.38930    0.29319   1.00
H2       0.17088    0.50912    0.23587   1.00
H2       0.15074    0.46288    0.22016   1.00
H2       0.34744    0.41700    0.28695   1.00
H2       0.33261    0.37105    0.26614   1.00
H2       0.36886    0.30970    0.30629   1.00
H2       0.11871    0.55753    0.21235   1.00
H2       0.09088    0.51237    0.21201   1.00
C2       0.25023    0.60395    0.24733   1.00
C3       0.22511    0.58403    0.27320   1.00
O2       0.19421    0.60326    0.29041   1.00
C3       0.27617    0.58174    0.22412   1.00
H1       0.29647    0.59615    0.20477   1.00
C3a      0.22570    0.54287    0.27456   1.00
H1       0.20475    0.52798    0.29287   1.00
C3b      0.27582    0.54078    0.22464   1.00
C4       0.25041    0.52100    0.24992   1.00
O3       0.20449    0.47833    0.19537   1.00
C5       0.20331    0.61280    0.32941   1.00
H2       0.20986    0.58609    0.34690   1.00
C5       0.16769    0.63326    0.34648   1.00
H2       0.22897    0.63274    0.33084   1.00
H2       0.14581    0.61068    0.35470   1.00
H2       0.15429    0.65093    0.32271   1.00
C5       0.17762    0.65918    0.38180   1.00
H2       0.19371    0.64176    0.40391   1.00
C5       0.14023    0.67547    0.40063   1.00
H2       0.19562    0.68493    0.37298   1.00
C5       0.14537    0.50983    0.17836   1.00
H2       0.13641    0.48785    0.15615   1.00
H2       0.16568    0.53048    0.16359   1.00
C5       0.10967    0.53200    0.19424   1.00
C5       0.08501    0.54775    0.16016   1.00
H2       0.39391    0.30714    0.37045   1.00
C5       0.44738    0.31088    0.33514   1.00
H2       0.41567    0.35677    0.36689   1.00
C5       0.32333    0.46663    0.03044   1.00
H2       0.36649    0.49449    0.06893   1.00
H2       0.34698    0.44707    0.08682   1.00
C5       0.15047    0.69503    0.43976   1.00
H2       0.12644    0.69789    0.38031   1.00
H2       0.11876    0.65063    0.40594   1.00
H2       0.10469    0.56398    0.13882   1.00
H2       0.07024    0.52239    0.14452   1.00
C5       0.05374    0.57583    0.17602   1.00
H2       0.44271    0.29884    0.30450   1.00
H2       0.47099    0.33429    0.33437   1.00
H2       0.45685    0.28626    0.35540   1.00
H2       0.29401    0.48180    0.02640   1.00
H2       0.34478    0.47771    0.00757   1.00
H2       0.31939    0.43379    0.02698   1.00
H2       0.17943    0.71111    0.43687   1.00
H2       0.12655    0.71664    0.44794   1.00
H2       0.15299    0.67181    0.46343   1.00
H2       0.06552    0.60693    0.17558   1.00
H2       0.02653    0.57402    0.15699   1.00
H2       0.04602    0.56734    0.20723   1.00
C5       0.32715    0.85061    -0.13218   1.00
H2       0.34240    0.82645    -0.14745   1.00
H2       0.34850    0.86252    -0.11090   1.00
C5       0.31544    0.88216    -0.16194   1.00
C5       0.35022    0.90903    -0.17123   1.00
H2       0.29105    0.90008    -0.15015   1.00
O3       0.20199    0.80206    0.02000   1.00
C4       0.25008    0.74959    -0.02100   1.00
C3c      0.27621    0.77276    -0.04243   1.00
H1       0.29697    0.79102    -0.02725   1.00
C3d      0.22364    0.72558    -0.04135   1.00
C3       0.27567    0.77323    -0.08354   1.00
O2       0.30513    0.79287    -0.10248   1.00
C3       0.22252    0.72654    -0.08227   1.00
H1       0.20081    0.70867    -0.09657   1.00
C2       0.24845    0.75012    -0.10439   1.00
C5       0.16264    0.78991    0.02121   1.00
H2       0.15121    0.78824    0.05162   1.00
H2       0.15896    0.76068    0.00734   1.00
C5       0.13860    0.81982    -0.00129   1.00
H2       0.15071    0.82230    -0.03137   1.00
H2       0.14219    0.84881    0.01302   1.00
C5       0.09527    0.80802    -0.00262   1.00
H2       0.08306    0.80523    0.02732   1.00
H2       0.09151    0.77973    -0.01811   1.00
C5       0.07149    0.83927    -0.02445   1.00
C5       0.21064    0.66776    -0.01105   1.00
C5       0.29319    0.83150    -0.11070   1.00
H2       0.23587    0.67088    0.00912   1.00
H2       0.22016    0.65074    -0.03712   1.00
H2       0.28695    0.84744    -0.08300   1.00
H2       0.26614    0.83261    -0.12895   1.00
H2       0.30629    0.86886    -0.19030   1.00
H2       0.21235    0.61871    0.05753   1.00
H2       0.21201    0.59088    0.01237   1.00
C2       0.24733    0.75023    0.10395   1.00
C3       0.27320    0.72511    0.08403   1.00
O2       0.29041    0.69421    0.10326   1.00
C3       0.22412    0.77617    0.08174   1.00
H1       0.20477    0.79647    0.09615   1.00
C3a      0.27456    0.72570    0.04287   1.00
H1       0.29287    0.70475    0.02798   1.00
C3b      0.22464    0.77582    0.04078   1.00
C4       0.24992    0.75041    0.02100   1.00
O3       0.19537    0.70449    -0.02167   1.00
C5       0.32941    0.70331    0.11280   1.00
H2       0.34690    0.70986    0.08609   1.00
C5       0.34648    0.66769    0.13326   1.00
H2       0.33084    0.72897    0.13274   1.00
H2       0.35470    0.64581    0.11068   1.00
H2       0.32271    0.65429    0.15093   1.00
C5       0.38180    0.67762    0.15918   1.00
H2       0.40391    0.69371    0.14176   1.00
C5       0.40063    0.64023    0.17547   1.00
H2       0.37298    0.69562    0.18493   1.00
C5       0.17836    0.64537    0.00983   1.00
H2       0.15615    0.63641    -0.01215   1.00
H2       0.16359    0.66568    0.03048   1.00
C5       0.19424    0.60967    0.03200   1.00
C5       0.16016    0.58501    0.04775   1.00
H2       0.37045    0.89391    -0.19286   1.00
C5       0.33514    0.94738    -0.18912   1.00
H2       0.36689    0.91567    -0.14323   1.00
C5       0.03044    0.82333    -0.03337   1.00
H2       0.06893    0.86649    -0.00551   1.00
H2       0.08682    0.84698    -0.05293   1.00
C5       0.43976    0.65047    0.19503   1.00
H2       0.38031    0.62644    0.19789   1.00
H2       0.40594    0.61876    0.15063   1.00
H2       0.13882    0.60469    0.06398   1.00
H2       0.14452    0.57024    0.02239   1.00
C5       0.17602    0.55374    0.07583   1.00
H2       0.30450    0.94271    -0.20116   1.00
H2       0.33437    0.97099    -0.16571   1.00
H2       0.35540    0.95685    -0.21374   1.00
H2       0.02640    0.79401    -0.01820   1.00
H2       0.00757    0.84478    -0.02229   1.00
H2       0.02698    0.81939    -0.06621   1.00
H2       0.43687    0.67943    0.21111   1.00
H2       0.44794    0.62655    0.21664   1.00
H2       0.46343    0.65299    0.17181   1.00
H2       0.17558    0.56552    0.10693   1.00
H2       0.15699    0.52653    0.07402   1.00
H2       0.20723    0.54602    0.06734   1.00
C5       0.82715    0.14939    0.63218   1.00
H2       0.84240    0.17355    0.64745   1.00
H2       0.84850    0.13748    0.61090   1.00
C5       0.81544    0.11784    0.66194   1.00
C5       0.85022    0.09097    0.67123   1.00
H2       0.79105    0.09992    0.65015   1.00
O3       0.70199    0.19794    0.48000   1.00
C4       0.75008    0.25041    0.52100   1.00
C3c      0.77621    0.22724    0.54243   1.00
H1       0.79697    0.20898    0.52725   1.00
C3d      0.72364    0.27442    0.54135   1.00
C3       0.77567    0.22677    0.58354   1.00
O2       0.80513    0.20713    0.60248   1.00
C3       0.72252    0.27346    0.58227   1.00
H1       0.70081    0.29133    0.59657   1.00
C2       0.74845    0.24988    0.60439   1.00
C5       0.66264    0.21009    0.47879   1.00
H2       0.65121    0.21176    0.44838   1.00
H2       0.65896    0.23932    0.49266   1.00
C5       0.63860    0.18018    0.50129   1.00
H2       0.65071    0.17770    0.53137   1.00
H2       0.64219    0.15119    0.48698   1.00
C5       0.59527    0.19198    0.50262   1.00
H2       0.58306    0.19477    0.47268   1.00
H2       0.59151    0.22027    0.51811   1.00
C5       0.57149    0.16073    0.52445   1.00
C5       0.71064    0.33224    0.51105   1.00
C5       0.79319    0.16850    0.61070   1.00
H2       0.73587    0.32912    0.49088   1.00
H2       0.72016    0.34926    0.53712   1.00
H2       0.78695    0.15256    0.58300   1.00
H2       0.76614    0.16739    0.62895   1.00
H2       0.80629    0.13114    0.69030   1.00
H2       0.71235    0.38129    0.44247   1.00
H2       0.71201    0.40912    0.48763   1.00
C2       0.74733    0.24977    0.39605   1.00
C3       0.77320    0.27489    0.41597   1.00
O2       0.79041    0.30579    0.39674   1.00
C3       0.72412    0.22383    0.41826   1.00
H1       0.70477    0.20353    0.40385   1.00
C3a      0.77456    0.27430    0.45713   1.00
H1       0.79287    0.29525    0.47202   1.00
C3b      0.72464    0.22418    0.45922   1.00
C4       0.74992    0.24959    0.47900   1.00
O3       0.69537    0.29551    0.52167   1.00
C5       0.82941    0.29669    0.38720   1.00
H2       0.84690    0.29014    0.41391   1.00
C5       0.84648    0.33231    0.36674   1.00
H2       0.83084    0.27103    0.36726   1.00
H2       0.85470    0.35419    0.38932   1.00
H2       0.82271    0.34571    0.34907   1.00
C5       0.88180    0.32238    0.34082   1.00
H2       0.90391    0.30629    0.35824   1.00
C5       0.90063    0.35977    0.32453   1.00
H2       0.87298    0.30438    0.31507   1.00
C5       0.67836    0.35463    0.49017   1.00
H2       0.65615    0.36359    0.51215   1.00
H2       0.66359    0.33432    0.46952   1.00
C5       0.69424    0.39033    0.46800   1.00
C5       0.66016    0.41499    0.45225   1.00
H2       0.87045    0.10609    0.69286   1.00
C5       0.83514    0.05262    0.68912   1.00
H2       0.86689    0.08433    0.64323   1.00
C5       0.53044    0.17667    0.53337   1.00
H2       0.56893    0.13351    0.50551   1.00
H2       0.58682    0.15302    0.55293   1.00
C5       0.93976    0.34953    0.30497   1.00
H2       0.88031    0.37356    0.30211   1.00
H2       0.90594    0.38124    0.34937   1.00
H2       0.63882    0.39531    0.43602   1.00
H2       0.64452    0.42976    0.47761   1.00
C5       0.67602    0.44626    0.42417   1.00
H2       0.80450    0.05729    0.70116   1.00
H2       0.83437    0.02901    0.66571   1.00
H2       0.85540    0.04315    0.71374   1.00
H2       0.52640    0.20599    0.51820   1.00
H2       0.50757    0.15522    0.52229   1.00
H2       0.52698    0.18061    0.56621   1.00
H2       0.93687    0.32057    0.28889   1.00
H2       0.94794    0.37345    0.28336   1.00
H2       0.96343    0.34701    0.32819   1.00
H2       0.67558    0.43448    0.39307   1.00
H2       0.65699    0.47347    0.42598   1.00
H2       0.70723    0.45398    0.43266   1.00
C5       0.64939    0.63218    0.32715   1.00
H2       0.67355    0.64745    0.34240   1.00
H2       0.63748    0.61090    0.34850   1.00
C5       0.61784    0.66194    0.31544   1.00
C5       0.59097    0.67123    0.35022   1.00
H2       0.59992    0.65015    0.29105   1.00
O3       0.69794    0.48000    0.20199   1.00
C4       0.75041    0.52100    0.25008   1.00
C3c      0.72724    0.54243    0.27621   1.00
H1       0.70898    0.52725    0.29697   1.00
C3d      0.77442    0.54135    0.22364   1.00
C3       0.72677    0.58354    0.27567   1.00
O2       0.70713    0.60248    0.30513   1.00
C3       0.77346    0.58227    0.22252   1.00
H1       0.79133    0.59657    0.20081   1.00
C2       0.74988    0.60439    0.24845   1.00
C5       0.71009    0.47879    0.16264   1.00
H2       0.71176    0.44838    0.15121   1.00
H2       0.73932    0.49266    0.15896   1.00
C5       0.68018    0.50129    0.13860   1.00
H2       0.67770    0.53137    0.15071   1.00
H2       0.65119    0.48698    0.14219   1.00
C5       0.69198    0.50262    0.09527   1.00
H2       0.69477    0.47268    0.08306   1.00
H2       0.72027    0.51811    0.09151   1.00
C5       0.66073    0.52445    0.07149   1.00
C5       0.83224    0.51105    0.21064   1.00
C5       0.66850    0.61070    0.29319   1.00
H2       0.82912    0.49088    0.23587   1.00
H2       0.84926    0.53712    0.22016   1.00
H2       0.65256    0.58300    0.28695   1.00
H2       0.66739    0.62895    0.26614   1.00
H2       0.63114    0.69030    0.30629   1.00
H2       0.88129    0.44247    0.21235   1.00
H2       0.90912    0.48763    0.21201   1.00
C2       0.74977    0.39605    0.24733   1.00
C3       0.77489    0.41597    0.27320   1.00
O2       0.80579    0.39674    0.29041   1.00
C3       0.72383    0.41826    0.22412   1.00
H1       0.70353    0.40385    0.20477   1.00
C3a      0.77430    0.45713    0.27456   1.00
H1       0.79525    0.47202    0.29287   1.00
C3b      0.72418    0.45922    0.22464   1.00
C4       0.74959    0.47900    0.24992   1.00
O3       0.79551    0.52167    0.19537   1.00
C5       0.79669    0.38720    0.32941   1.00
H2       0.79014    0.41391    0.34690   1.00
C5       0.83231    0.36674    0.34648   1.00
H2       0.77103    0.36726    0.33084   1.00
H2       0.85419    0.38932    0.35470   1.00
H2       0.84571    0.34907    0.32271   1.00
C5       0.82238    0.34082    0.38180   1.00
H2       0.80629    0.35824    0.40391   1.00
C5       0.85977    0.32453    0.40063   1.00
H2       0.80438    0.31507    0.37298   1.00
C5       0.85463    0.49017    0.17836   1.00
H2       0.86359    0.51215    0.15615   1.00
H2       0.83432    0.46952    0.16359   1.00
C5       0.89033    0.46800    0.19424   1.00
C5       0.91499    0.45225    0.16016   1.00
H2       0.60609    0.69286    0.37045   1.00
C5       0.55262    0.68912    0.33514   1.00
H2       0.58433    0.64323    0.36689   1.00
C5       0.67667    0.53337    0.03044   1.00
H2       0.63351    0.50551    0.06893   1.00
H2       0.65302    0.55293    0.08682   1.00
C5       0.84953    0.30497    0.43976   1.00
H2       0.87356    0.30211    0.38031   1.00
H2       0.88124    0.34937    0.40594   1.00
H2       0.89531    0.43602    0.13882   1.00
H2       0.92976    0.47761    0.14452   1.00
C5       0.94626    0.42417    0.17602   1.00
H2       0.55729    0.70116    0.30450   1.00
H2       0.52901    0.66571    0.33437   1.00
H2       0.54315    0.71374    0.35540   1.00
H2       0.70599    0.51820    0.02640   1.00
H2       0.65522    0.52229    0.00757   1.00
H2       0.68061    0.56621    0.02698   1.00
H2       0.82057    0.28889    0.43687   1.00
H2       0.87345    0.28336    0.44794   1.00
H2       0.84701    0.32819    0.46343   1.00
H2       0.93448    0.39307    0.17558   1.00
H2       0.97347    0.42598    0.15699   1.00
H2       0.95398    0.43266    0.20723   1.00
C5       0.36782    0.32715    0.35061   1.00
H2       0.35255    0.34240    0.32645   1.00
H2       0.38910    0.34850    0.36252   1.00
C5       0.33806    0.31544    0.38216   1.00
C5       0.32877    0.35022    0.40903   1.00
H2       0.34985    0.29105    0.40008   1.00
O3       0.52000    0.20199    0.30206   1.00
C4       0.47900    0.25008    0.24959   1.00
C3c      0.45757    0.27621    0.27276   1.00
H1       0.47275    0.29697    0.29102   1.00
C3d      0.45865    0.22364    0.22558   1.00
C3       0.41646    0.27567    0.27323   1.00
O2       0.39752    0.30513    0.29287   1.00
C3       0.41773    0.22252    0.22654   1.00
H1       0.40343    0.20081    0.20867   1.00
C2       0.39561    0.24845    0.25012   1.00
C5       0.52121    0.16264    0.28991   1.00
H2       0.55162    0.15121    0.28824   1.00
H2       0.50734    0.15896    0.26068   1.00
C5       0.49871    0.13860    0.31982   1.00
H2       0.46863    0.15071    0.32230   1.00
H2       0.51302    0.14219    0.34881   1.00
C5       0.49738    0.09527    0.30802   1.00
H2       0.52732    0.08306    0.30523   1.00
H2       0.48189    0.09151    0.27973   1.00
C5       0.47555    0.07149    0.33927   1.00
C5       0.48895    0.21064    0.16776   1.00
C5       0.38930    0.29319    0.33150   1.00
H2       0.50912    0.23587    0.17088   1.00
H2       0.46288    0.22016    0.15074   1.00
H2       0.41700    0.28695    0.34744   1.00
H2       0.37105    0.26614    0.33261   1.00
H2       0.30970    0.30629    0.36886   1.00
H2       0.55753    0.21235    0.11871   1.00
H2       0.51237    0.21201    0.09088   1.00
C2       0.60395    0.24733    0.25023   1.00
C3       0.58403    0.27320    0.22511   1.00
O2       0.60326    0.29041    0.19421   1.00
C3       0.58174    0.22412    0.27617   1.00
H1       0.59615    0.20477    0.29647   1.00
C3a      0.54287    0.27456    0.22570   1.00
H1       0.52798    0.29287    0.20475   1.00
C3b      0.54078    0.22464    0.27582   1.00
C4       0.52100    0.24992    0.25041   1.00
O3       0.47833    0.19537    0.20449   1.00
C5       0.61280    0.32941    0.20331   1.00
H2       0.58609    0.34690    0.20986   1.00
C5       0.63326    0.34648    0.16769   1.00
H2       0.63274    0.33084    0.22897   1.00
H2       0.61068    0.35470    0.14581   1.00
H2       0.65093    0.32271    0.15429   1.00
C5       0.65918    0.38180    0.17762   1.00
H2       0.64176    0.40391    0.19371   1.00
C5       0.67547    0.40063    0.14023   1.00
H2       0.68493    0.37298    0.19562   1.00
C5       0.50983    0.17836    0.14537   1.00
H2       0.48785    0.15615    0.13641   1.00
H2       0.53048    0.16359    0.16568   1.00
C5       0.53200    0.19424    0.10967   1.00
C5       0.54775    0.16016    0.08501   1.00
H2       0.30714    0.37045    0.39391   1.00
C5       0.31088    0.33514    0.44738   1.00
H2       0.35677    0.36689    0.41567   1.00
C5       0.46663    0.03044    0.32333   1.00
H2       0.49449    0.06893    0.36649   1.00
H2       0.44707    0.08682    0.34698   1.00
C5       0.69503    0.43976    0.15047   1.00
H2       0.69789    0.38031    0.12644   1.00
H2       0.65063    0.40594    0.11876   1.00
H2       0.56398    0.13882    0.10469   1.00
H2       0.52239    0.14452    0.07024   1.00
C5       0.57583    0.17602    0.05374   1.00
H2       0.29884    0.30450    0.44271   1.00
H2       0.33429    0.33437    0.47099   1.00
H2       0.28626    0.35540    0.45685   1.00
H2       0.48180    0.02640    0.29401   1.00
H2       0.47771    0.00757    0.34478   1.00
H2       0.43379    0.02698    0.31939   1.00
H2       0.71111    0.43687    0.17943   1.00
H2       0.71664    0.44794    0.12655   1.00
H2       0.67181    0.46343    0.15299   1.00
H2       0.60693    0.17558    0.06552   1.00
H2       0.57402    0.15699    0.02653   1.00
H2       0.56734    0.20723    0.04602   1.00
C5       1.13218    0.32715    0.14939   1.00
H2       1.14745    0.34240    0.17355   1.00
H2       1.11090    0.34850    0.13748   1.00
C5       1.16194    0.31544    0.11784   1.00
C5       1.17123    0.35022    0.09097   1.00
H2       1.15015    0.29105    0.09992   1.00
O3       0.98000    0.20199    0.19794   1.00
C4       1.02100    0.25008    0.25041   1.00
C3c      1.04243    0.27621    0.22724   1.00
H1       1.02725    0.29697    0.20898   1.00
C3d      1.04135    0.22364    0.27442   1.00
C3       1.08354    0.27567    0.22677   1.00
O2       1.10248    0.30513    0.20713   1.00
C3       1.08227    0.22252    0.27346   1.00
H1       1.09657    0.20081    0.29133   1.00
C2       1.10439    0.24845    0.24988   1.00
C5       0.97879    0.16264    0.21009   1.00
H2       0.94838    0.15121    0.21176   1.00
H2       0.99266    0.15896    0.23932   1.00
C5       1.00129    0.13860    0.18018   1.00
H2       1.03137    0.15071    0.17770   1.00
H2       0.98698    0.14219    0.15119   1.00
C5       1.00262    0.09527    0.19198   1.00
H2       0.97268    0.08306    0.19477   1.00
H2       1.01811    0.09151    0.22027   1.00
C5       1.02445    0.07149    0.16073   1.00
C5       1.01105    0.21064    0.33224   1.00
C5       1.11070    0.29319    0.16850   1.00
H2       0.99088    0.23587    0.32912   1.00
H2       1.03712    0.22016    0.34926   1.00
H2       1.08300    0.28695    0.15256   1.00
H2       1.12895    0.26614    0.16739   1.00
H2       1.19030    0.30629    0.13114   1.00
H2       0.94247    0.21235    0.38129   1.00
H2       0.98763    0.21201    0.40912   1.00
C2       0.89605    0.24733    0.24977   1.00
C3       0.91597    0.27320    0.27489   1.00
O2       0.89674    0.29041    0.30579   1.00
C3       0.91826    0.22412    0.22383   1.00
H1       0.90385    0.20477    0.20353   1.00
C3a      0.95713    0.27456    0.27430   1.00
H1       0.97202    0.29287    0.29525   1.00
C3b      0.95922    0.22464    0.22418   1.00
C4       0.97900    0.24992    0.24959   1.00
O3       1.02167    0.19537    0.29551   1.00
C5       0.88720    0.32941    0.29669   1.00
H2       0.91391    0.34690    0.29014   1.00
C5       0.86674    0.34648    0.33231   1.00
H2       0.86726    0.33084    0.27103   1.00
H2       0.88932    0.35470    0.35419   1.00
H2       0.84907    0.32271    0.34571   1.00
C5       0.84082    0.38180    0.32238   1.00
H2       0.85824    0.40391    0.30629   1.00
C5       0.82453    0.40063    0.35977   1.00
H2       0.81507    0.37298    0.30438   1.00
C5       0.99017    0.17836    0.35463   1.00
H2       1.01215    0.15615    0.36359   1.00
H2       0.96952    0.16359    0.33432   1.00
C5       0.96800    0.19424    0.39033   1.00
C5       0.95225    0.16016    0.41499   1.00
H2       1.19286    0.37045    0.10609   1.00
C5       1.18912    0.33514    0.05262   1.00
H2       1.14323    0.36689    0.08433   1.00
C5       1.03337    0.03044    0.17667   1.00
H2       1.00551    0.06893    0.13351   1.00
H2       1.05293    0.08682    0.15302   1.00
C5       0.80497    0.43976    0.34953   1.00
H2       0.80211    0.38031    0.37356   1.00
H2       0.84937    0.40594    0.38124   1.00
H2       0.93602    0.13882    0.39531   1.00
H2       0.97761    0.14452    0.42976   1.00
C5       0.92417    0.17602    0.44626   1.00
H2       1.20116    0.30450    0.05729   1.00
H2       1.16571    0.33437    0.02901   1.00
H2       1.21374    0.35540    0.04315   1.00
H2       1.01820    0.02640    0.20599   1.00
H2       1.02229    0.00757    0.15522   1.00
H2       1.06621    0.02698    0.18061   1.00
H2       0.78889    0.43687    0.32057   1.00
H2       0.78336    0.44794    0.37345   1.00
H2       0.82819    0.46343    0.34701   1.00
H2       0.89307    0.17558    0.43448   1.00
H2       0.92598    0.15699    0.47347   1.00
H2       0.93266    0.20723    0.45398   1.00
C5       0.85061    -0.13218   0.32715   1.00
H2       0.82645    -0.14745   0.34240   1.00
H2       0.86252    -0.11090   0.34850   1.00
C5       0.88216    -0.16194   0.31544   1.00
C5       0.90903    -0.17123   0.35022   1.00
H2       0.90008    -0.15015   0.29105   1.00
O3       0.80206    0.02000    0.20199   1.00
C4       0.74959    -0.02100   0.25008   1.00
C3c      0.77276    -0.04243   0.27621   1.00
H1       0.79102    -0.02725   0.29697   1.00
C3d      0.72558    -0.04135   0.22364   1.00
C3       0.77323    -0.08354   0.27567   1.00
O2       0.79287    -0.10248   0.30513   1.00
C3       0.72654    -0.08227   0.22252   1.00
H1       0.70867    -0.09657   0.20081   1.00
C2       0.75012    -0.10439   0.24845   1.00
C5       0.78991    0.02121    0.16264   1.00
H2       0.78824    0.05162    0.15121   1.00
H2       0.76068    0.00734    0.15896   1.00
C5       0.81982    -0.00129   0.13860   1.00
H2       0.82230    -0.03137   0.15071   1.00
H2       0.84881    0.01302    0.14219   1.00
C5       0.80802    -0.00262   0.09527   1.00
H2       0.80523    0.02732    0.08306   1.00
H2       0.77973    -0.01811   0.09151   1.00
C5       0.83927    -0.02445   0.07149   1.00
C5       0.66776    -0.01105   0.21064   1.00
C5       0.83150    -0.11070   0.29319   1.00
H2       0.67088    0.00912    0.23587   1.00
H2       0.65074    -0.03712   0.22016   1.00
H2       0.84744    -0.08300   0.28695   1.00
H2       0.83261    -0.12895   0.26614   1.00
H2       0.86886    -0.19030   0.30629   1.00
H2       0.61871    0.05753    0.21235   1.00
H2       0.59088    0.01237    0.21201   1.00
C2       0.75023    0.10395    0.24733   1.00
C3       0.72511    0.08403    0.27320   1.00
O2       0.69421    0.10326    0.29041   1.00
C3       0.77617    0.08174    0.22412   1.00
H1       0.79647    0.09615    0.20477   1.00
C3a      0.72570    0.04287    0.27456   1.00
H1       0.70475    0.02798    0.29287   1.00
C3b      0.77582    0.04078    0.22464   1.00
C4       0.75041    0.02100    0.24992   1.00
O3       0.70449    -0.02167   0.19537   1.00
C5       0.70331    0.11280    0.32941   1.00
H2       0.70986    0.08609    0.34690   1.00
C5       0.66769    0.13326    0.34648   1.00
H2       0.72897    0.13274    0.33084   1.00
H2       0.64581    0.11068    0.35470   1.00
H2       0.65429    0.15093    0.32271   1.00
C5       0.67762    0.15918    0.38180   1.00
H2       0.69371    0.14176    0.40391   1.00
C5       0.64023    0.17547    0.40063   1.00
H2       0.69562    0.18493    0.37298   1.00
C5       0.64537    0.00983    0.17836   1.00
H2       0.63641    -0.01215   0.15615   1.00
H2       0.66568    0.03048    0.16359   1.00
C5       0.60967    0.03200    0.19424   1.00
C5       0.58501    0.04775    0.16016   1.00
H2       0.89391    -0.19286   0.37045   1.00
C5       0.94738    -0.18912   0.33514   1.00
H2       0.91567    -0.14323   0.36689   1.00
C5       0.82333    -0.03337   0.03044   1.00
H2       0.86649    -0.00551   0.06893   1.00
H2       0.84698    -0.05293   0.08682   1.00
C5       0.65047    0.19503    0.43976   1.00
H2       0.62644    0.19789    0.38031   1.00
H2       0.61876    0.15063    0.40594   1.00
H2       0.60469    0.06398    0.13882   1.00
H2       0.57024    0.02239    0.14452   1.00
C5       0.55374    0.07583    0.17602   1.00
H2       0.94271    -0.20116   0.30450   1.00
H2       0.97099    -0.16571   0.33437   1.00
H2       0.95685    -0.21374   0.35540   1.00
H2       0.79401    -0.01820   0.02640   1.00
H2       0.84478    -0.02229   0.00757   1.00
H2       0.81939    -0.06621   0.02698   1.00
H2       0.67943    0.21111    0.43687   1.00
H2       0.62655    0.21664    0.44794   1.00
H2       0.65299    0.17181    0.46343   1.00
H2       0.56552    0.10693    0.17558   1.00
H2       0.52653    0.07402    0.15699   1.00
H2       0.54602    0.06734    0.20723   1.00
C5       0.82715    0.35061    -0.13218   1.00
H2       0.84240    0.32645    -0.14745   1.00
H2       0.84850    0.36252    -0.11090   1.00
C5       0.81544    0.38216    -0.16194   1.00
C5       0.85022    0.40903    -0.17123   1.00
H2       0.79105    0.40008    -0.15015   1.00
O3       0.70199    0.30206    0.02000   1.00
C4       0.75008    0.24959    -0.02100   1.00
C3c      0.77621    0.27276    -0.04243   1.00
H1       0.79697    0.29102    -0.02725   1.00
C3d      0.72364    0.22558    -0.04135   1.00
C3       0.77567    0.27323    -0.08354   1.00
O2       0.80513    0.29287    -0.10248   1.00
C3       0.72252    0.22654    -0.08227   1.00
H1       0.70081    0.20867    -0.09657   1.00
C2       0.74845    0.25012    -0.10439   1.00
C5       0.66264    0.28991    0.02121   1.00
H2       0.65121    0.28824    0.05162   1.00
H2       0.65896    0.26068    0.00734   1.00
C5       0.63860    0.31982    -0.00129   1.00
H2       0.65071    0.32230    -0.03137   1.00
H2       0.64219    0.34881    0.01302   1.00
C5       0.59527    0.30802    -0.00262   1.00
H2       0.58306    0.30523    0.02732   1.00
H2       0.59151    0.27973    -0.01811   1.00
C5       0.57149    0.33927    -0.02445   1.00
C5       0.71064    0.16776    -0.01105   1.00
C5       0.79319    0.33150    -0.11070   1.00
H2       0.73587    0.17088    0.00912   1.00
H2       0.72016    0.15074    -0.03712   1.00
H2       0.78695    0.34744    -0.08300   1.00
H2       0.76614    0.33261    -0.12895   1.00
H2       0.80629    0.36886    -0.19030   1.00
H2       0.71235    0.11871    0.05753   1.00
H2       0.71201    0.09088    0.01237   1.00
C2       0.74733    0.25023    0.10395   1.00
C3       0.77320    0.22511    0.08403   1.00
O2       0.79041    0.19421    0.10326   1.00
C3       0.72412    0.27617    0.08174   1.00
H1       0.70477    0.29647    0.09615   1.00
C3a      0.77456    0.22570    0.04287   1.00
H1       0.79287    0.20475    0.02798   1.00
C3b      0.72464    0.27582    0.04078   1.00
C4       0.74992    0.25041    0.02100   1.00
O3       0.69537    0.20449    -0.02167   1.00
C5       0.82941    0.20331    0.11280   1.00
H2       0.84690    0.20986    0.08609   1.00
C5       0.84648    0.16769    0.13326   1.00
H2       0.83084    0.22897    0.13274   1.00
H2       0.85470    0.14581    0.11068   1.00
H2       0.82271    0.15429    0.15093   1.00
C5       0.88180    0.17762    0.15918   1.00
H2       0.90391    0.19371    0.14176   1.00
C5       0.90063    0.14023    0.17547   1.00
H2       0.87298    0.19562    0.18493   1.00
C5       0.67836    0.14537    0.00983   1.00
H2       0.65615    0.13641    -0.01215   1.00
H2       0.66359    0.16568    0.03048   1.00
C5       0.69424    0.10967    0.03200   1.00
C5       0.66016    0.08501    0.04775   1.00
H2       0.87045    0.39391    -0.19286   1.00
C5       0.83514    0.44738    -0.18912   1.00
H2       0.86689    0.41567    -0.14323   1.00
C5       0.53044    0.32333    -0.03337   1.00
H2       0.56893    0.36649    -0.00551   1.00
H2       0.58682    0.34698    -0.05293   1.00
C5       0.93976    0.15047    0.19503   1.00
H2       0.88031    0.12644    0.19789   1.00
H2       0.90594    0.11876    0.15063   1.00
H2       0.63882    0.10469    0.06398   1.00
H2       0.64452    0.07024    0.02239   1.00
C5       0.67602    0.05374    0.07583   1.00
H2       0.80450    0.44271    -0.20116   1.00
H2       0.83437    0.47099    -0.16571   1.00
H2       0.85540    0.45685    -0.21374   1.00
H2       0.52640    0.29401    -0.01820   1.00
H2       0.50757    0.34478    -0.02229   1.00
H2       0.52698    0.31939    -0.06621   1.00
H2       0.93687    0.17943    0.21111   1.00
H2       0.94794    0.12655    0.21664   1.00
H2       0.96343    0.15299    0.17181   1.00
H2       0.67558    0.06552    0.10693   1.00
H2       0.65699    0.02653    0.07402   1.00
H2       0.70723    0.04602    0.06734   1.00
