data_IRMOF10_SG202_Ligand10_label_j.

_audit_creation_method             'generated by an auxiliary program of Tobunporous'

_symmetry_space_group_name_H-M     'P 1'
_symmetry_Int_Tables_number        1
_symmetry_cell_setting             triclinic

_cell_length_a                    34.2800
_cell_length_b                    34.2800
_cell_length_c                    34.2800
_cell_angle_alpha                 90.0000
_cell_angle_beta                  90.0000
_cell_angle_gamma                 90.0000

loop_
_atom_site_label
_atom_site_fract_x
_atom_site_fract_y
_atom_site_fract_z
_atom_site_occupancy
O1       0.75000    0.75000    0.75000   1.00
Zn1      0.71720    0.78280    0.78280   1.00
Zn1      0.78280    0.71720    0.78280   1.00
Zn1      0.78280    0.78280    0.71720   1.00
Zn1      0.71720    0.71720    0.71720   1.00
O2       0.72650    0.77350    0.83820   1.00
O2       0.72650    0.83820    0.77350   1.00
O2       0.66180    0.77350    0.77350   1.00
O2       0.77350    0.72650    0.83820   1.00
O2       0.83820    0.72650    0.77350   1.00
O2       0.77350    0.66180    0.77350   1.00
O2       0.77350    0.83820    0.72650   1.00
O2       0.83820    0.77350    0.72650   1.00
O2       0.77350    0.77350    0.66180   1.00
O2       0.66180    0.72650    0.72650   1.00
O2       0.72650    0.66180    0.72650   1.00
O2       0.72650    0.72650    0.66180   1.00
C1       0.75000    0.75000    0.85520   1.00
C1       0.75000    0.85520    0.75000   1.00
C1       0.64480    0.75000    0.75000   1.00
C1       0.85520    0.75000    0.75000   1.00
C1       0.75000    0.64480    0.75000   1.00
C1       0.75000    0.75000    0.64480   1.00
O1       0.25000    0.25000    0.75000   1.00
Zn1      0.21720    0.28280    0.78280   1.00
Zn1      0.28280    0.21720    0.78280   1.00
Zn1      0.28280    0.28280    0.71720   1.00
Zn1      0.21720    0.21720    0.71720   1.00
O2       0.22650    0.27350    0.83820   1.00
O2       0.22650    0.33820    0.77350   1.00
O2       0.16180    0.27350    0.77350   1.00
O2       0.27350    0.22650    0.83820   1.00
O2       0.33820    0.22650    0.77350   1.00
O2       0.27350    0.16180    0.77350   1.00
O2       0.27350    0.33820    0.72650   1.00
O2       0.33820    0.27350    0.72650   1.00
O2       0.27350    0.27350    0.66180   1.00
O2       0.16180    0.22650    0.72650   1.00
O2       0.22650    0.16180    0.72650   1.00
O2       0.22650    0.22650    0.66180   1.00
C1       0.25000    0.25000    0.85520   1.00
C1       0.25000    0.35520    0.75000   1.00
C1       0.14480    0.25000    0.75000   1.00
C1       0.35520    0.25000    0.75000   1.00
C1       0.25000    0.14480    0.75000   1.00
C1       0.25000    0.25000    0.64480   1.00
O1       0.25000    0.75000    0.25000   1.00
Zn1      0.21720    0.78280    0.28280   1.00
Zn1      0.28280    0.71720    0.28280   1.00
Zn1      0.28280    0.78280    0.21720   1.00
Zn1      0.21720    0.71720    0.21720   1.00
O2       0.22650    0.77350    0.33820   1.00
O2       0.22650    0.83820    0.27350   1.00
O2       0.16180    0.77350    0.27350   1.00
O2       0.27350    0.72650    0.33820   1.00
O2       0.33820    0.72650    0.27350   1.00
O2       0.27350    0.66180    0.27350   1.00
O2       0.27350    0.83820    0.22650   1.00
O2       0.33820    0.77350    0.22650   1.00
O2       0.27350    0.77350    0.16180   1.00
O2       0.16180    0.72650    0.22650   1.00
O2       0.22650    0.66180    0.22650   1.00
O2       0.22650    0.72650    0.16180   1.00
C1       0.25000    0.75000    0.35520   1.00
C1       0.25000    0.85520    0.25000   1.00
C1       0.14480    0.75000    0.25000   1.00
C1       0.35520    0.75000    0.25000   1.00
C1       0.25000    0.64480    0.25000   1.00
C1       0.25000    0.75000    0.14480   1.00
O1       0.75000    0.25000    0.25000   1.00
Zn1      0.71720    0.28280    0.28280   1.00
Zn1      0.78280    0.21720    0.28280   1.00
Zn1      0.78280    0.28280    0.21720   1.00
Zn1      0.71720    0.21720    0.21720   1.00
O2       0.72650    0.27350    0.33820   1.00
O2       0.72650    0.33820    0.27350   1.00
O2       0.66180    0.27350    0.27350   1.00
O2       0.77350    0.22650    0.33820   1.00
O2       0.83820    0.22650    0.27350   1.00
O2       0.77350    0.16180    0.27350   1.00
O2       0.77350    0.33820    0.22650   1.00
O2       0.83820    0.27350    0.22650   1.00
O2       0.77350    0.27350    0.16180   1.00
O2       0.66180    0.22650    0.22650   1.00
O2       0.72650    0.16180    0.22650   1.00
O2       0.72650    0.22650    0.16180   1.00
C1       0.75000    0.25000    0.35520   1.00
C1       0.75000    0.35520    0.25000   1.00
C1       0.64480    0.25000    0.25000   1.00
C1       0.85520    0.25000    0.25000   1.00
C1       0.75000    0.14480    0.25000   1.00
C1       0.75000    0.25000    0.14480   1.00
O1       0.25000    0.25000    0.25000   1.00
Zn1      0.28280    0.21720    0.21720   1.00
Zn1      0.21720    0.28280    0.21720   1.00
Zn1      0.21720    0.21720    0.28280   1.00
Zn1      0.28280    0.28280    0.28280   1.00
O2       0.27350    0.22650    0.16180   1.00
O2       0.27350    0.16180    0.22650   1.00
O2       0.33820    0.22650    0.22650   1.00
O2       0.22650    0.27350    0.16180   1.00
O2       0.16180    0.27350    0.22650   1.00
O2       0.22650    0.33820    0.22650   1.00
O2       0.22650    0.16180    0.27350   1.00
O2       0.16180    0.22650    0.27350   1.00
O2       0.22650    0.22650    0.33820   1.00
O2       0.33820    0.27350    0.27350   1.00
O2       0.27350    0.33820    0.27350   1.00
O2       0.27350    0.27350    0.33820   1.00
C1       0.25000    0.25000    0.14480   1.00
C1       0.25000    0.14480    0.25000   1.00
C1       0.35520    0.25000    0.25000   1.00
C1       0.14480    0.25000    0.25000   1.00
C1       0.25000    0.35520    0.25000   1.00
C1       0.25000    0.25000    0.35520   1.00
O1       0.75000    0.75000    0.25000   1.00
Zn1      0.78280    0.71720    0.21720   1.00
Zn1      0.71720    0.78280    0.21720   1.00
Zn1      0.71720    0.71720    0.28280   1.00
Zn1      0.78280    0.78280    0.28280   1.00
O2       0.77350    0.72650    0.16180   1.00
O2       0.77350    0.66180    0.22650   1.00
O2       0.83820    0.72650    0.22650   1.00
O2       0.72650    0.77350    0.16180   1.00
O2       0.66180    0.77350    0.22650   1.00
O2       0.72650    0.83820    0.22650   1.00
O2       0.72650    0.66180    0.27350   1.00
O2       0.66180    0.72650    0.27350   1.00
O2       0.72650    0.72650    0.33820   1.00
O2       0.83820    0.77350    0.27350   1.00
O2       0.77350    0.83820    0.27350   1.00
O2       0.77350    0.77350    0.33820   1.00
C1       0.75000    0.75000    0.14480   1.00
C1       0.75000    0.64480    0.25000   1.00
C1       0.85520    0.75000    0.25000   1.00
C1       0.64480    0.75000    0.25000   1.00
C1       0.75000    0.85520    0.25000   1.00
C1       0.75000    0.75000    0.35520   1.00
O1       0.75000    0.25000    0.75000   1.00
Zn1      0.78280    0.21720    0.71720   1.00
Zn1      0.71720    0.28280    0.71720   1.00
Zn1      0.71720    0.21720    0.78280   1.00
Zn1      0.78280    0.28280    0.78280   1.00
O2       0.77350    0.22650    0.66180   1.00
O2       0.77350    0.16180    0.72650   1.00
O2       0.83820    0.22650    0.72650   1.00
O2       0.72650    0.27350    0.66180   1.00
O2       0.66180    0.27350    0.72650   1.00
O2       0.72650    0.33820    0.72650   1.00
O2       0.72650    0.16180    0.77350   1.00
O2       0.66180    0.22650    0.77350   1.00
O2       0.72650    0.22650    0.83820   1.00
O2       0.83820    0.27350    0.77350   1.00
O2       0.77350    0.33820    0.77350   1.00
O2       0.77350    0.27350    0.83820   1.00
C1       0.75000    0.25000    0.64480   1.00
C1       0.75000    0.14480    0.75000   1.00
C1       0.85520    0.25000    0.75000   1.00
C1       0.64480    0.25000    0.75000   1.00
C1       0.75000    0.35520    0.75000   1.00
C1       0.75000    0.25000    0.85520   1.00
O1       0.25000    0.75000    0.75000   1.00
Zn1      0.28280    0.71720    0.71720   1.00
Zn1      0.21720    0.78280    0.71720   1.00
Zn1      0.21720    0.71720    0.78280   1.00
Zn1      0.28280    0.78280    0.78280   1.00
O2       0.27350    0.72650    0.66180   1.00
O2       0.27350    0.66180    0.72650   1.00
O2       0.33820    0.72650    0.72650   1.00
O2       0.22650    0.77350    0.66180   1.00
O2       0.16180    0.77350    0.72650   1.00
O2       0.22650    0.83820    0.72650   1.00
O2       0.22650    0.66180    0.77350   1.00
O2       0.16180    0.72650    0.77350   1.00
O2       0.22650    0.72650    0.83820   1.00
O2       0.33820    0.77350    0.77350   1.00
O2       0.27350    0.83820    0.77350   1.00
O2       0.27350    0.77350    0.83820   1.00
C1       0.25000    0.75000    0.64480   1.00
C1       0.25000    0.64480    0.75000   1.00
C1       0.35520    0.75000    0.75000   1.00
C1       0.14480    0.75000    0.75000   1.00
C1       0.25000    0.85520    0.75000   1.00
C1       0.25000    0.75000    0.85520   1.00
C4       0.75038    0.75004    0.97915   1.00
C4       0.74962    0.74996    1.02085   1.00
C3       0.76635    0.71868    0.95751   1.00
C3       0.74125    0.71584    1.04252   1.00
C3       0.73434    0.78127    0.95738   1.00
C3       0.75811    0.78404    1.04259   1.00
C2       0.75002    0.74984    0.89482   1.00
C2       0.75002    0.74984    1.10518   1.00
C3a      0.76626    0.71845    0.91599   1.00
C3       0.74145    0.71586    1.08382   1.00
C3       0.73419    0.78110    0.91611   1.00
C3a      0.75834    0.78418    1.08403   1.00
H1       0.77927    0.69435    0.97294   1.00
H1       0.73414    0.68897    1.02750   1.00
C5       0.78370    0.68463    0.89410   1.00
H1       0.73485    0.68914    1.09933   1.00
H1       0.72136    0.80542    0.90056   1.00
C5       0.76757    0.82146    1.10535   1.00
H1       0.76580    0.81067    1.02747   1.00
H1       0.72105    0.80573    0.97230   1.00
H2       0.74465    0.84332    1.09837   1.00
H2       0.76704    0.81697    1.13747   1.00
N1       0.80601    0.83611    1.09395   1.00
C6       0.81663    0.84817    1.05810   1.00
C6       0.83712    0.84037    1.11757   1.00
C6       0.85506    0.86011    1.05873   1.00
C6       0.86809    0.85514    1.09656   1.00
H3       0.79768    0.84837    1.03281   1.00
H3       0.83742    0.83306    1.14831   1.00
H3       0.87171    0.87125    1.03436   1.00
H3       0.89693    0.86159    1.10758   1.00
H2       0.78019    0.68979    0.86228   1.00
H2       0.81546    0.68199    0.90001   1.00
N1       0.76447    0.64830    0.90523   1.00
C6       0.74308    0.62262    0.88078   1.00
C6       0.76341    0.63098    0.94285   1.00
C6       0.72985    0.59157    0.90277   1.00
C6       0.74232    0.59671    0.94091   1.00
H3       0.73801    0.62699    0.84992   1.00
H3       0.77675    0.64317    0.96876   1.00
H3       0.71263    0.56741    0.89205   1.00
H3       0.73646    0.57727    0.96505   1.00
C4       0.75004    0.97915    0.75038   1.00
C4       0.74996    1.02085    0.74962   1.00
C3       0.71868    0.95751    0.76635   1.00
C3       0.71584    1.04252    0.74125   1.00
C3       0.78127    0.95738    0.73434   1.00
C3       0.78404    1.04259    0.75811   1.00
C2       0.74984    0.89482    0.75002   1.00
C2       0.74984    1.10518    0.75002   1.00
C3a      0.71845    0.91599    0.76626   1.00
C3       0.71586    1.08382    0.74145   1.00
C3       0.78110    0.91611    0.73419   1.00
C3a      0.78418    1.08403    0.75834   1.00
H1       0.69435    0.97294    0.77927   1.00
H1       0.68897    1.02750    0.73414   1.00
C5       0.68463    0.89410    0.78370   1.00
H1       0.68914    1.09933    0.73485   1.00
H1       0.80542    0.90056    0.72136   1.00
C5       0.82146    1.10535    0.76757   1.00
H1       0.81067    1.02747    0.76580   1.00
H1       0.80573    0.97230    0.72105   1.00
H2       0.84332    1.09837    0.74465   1.00
H2       0.81697    1.13747    0.76704   1.00
N1       0.83611    1.09395    0.80601   1.00
C6       0.84817    1.05810    0.81663   1.00
C6       0.84037    1.11757    0.83712   1.00
C6       0.86011    1.05873    0.85506   1.00
C6       0.85514    1.09656    0.86809   1.00
H3       0.84837    1.03281    0.79768   1.00
H3       0.83306    1.14831    0.83742   1.00
H3       0.87125    1.03436    0.87171   1.00
H3       0.86159    1.10758    0.89693   1.00
H2       0.68979    0.86228    0.78019   1.00
H2       0.68199    0.90001    0.81546   1.00
N1       0.64830    0.90523    0.76447   1.00
C6       0.62262    0.88078    0.74308   1.00
C6       0.63098    0.94285    0.76341   1.00
C6       0.59157    0.90277    0.72985   1.00
C6       0.59671    0.94091    0.74232   1.00
H3       0.62699    0.84992    0.73801   1.00
H3       0.64317    0.96876    0.77675   1.00
H3       0.56741    0.89205    0.71263   1.00
H3       0.57727    0.96505    0.73646   1.00
C4       0.52085    0.75038    0.74996   1.00
C4       0.47915    0.74962    0.75004   1.00
C3       0.54249    0.76635    0.78132   1.00
C3       0.45748    0.74125    0.78416   1.00
C3       0.54262    0.73434    0.71873   1.00
C3       0.45741    0.75811    0.71596   1.00
C2       0.60518    0.75002    0.75016   1.00
C2       0.39482    0.75002    0.75016   1.00
C3a      0.58401    0.76626    0.78155   1.00
C3       0.41618    0.74145    0.78414   1.00
C3       0.58389    0.73419    0.71890   1.00
C3a      0.41597    0.75834    0.71582   1.00
H1       0.52706    0.77927    0.80565   1.00
H1       0.47250    0.73414    0.81103   1.00
C5       0.60590    0.78370    0.81537   1.00
H1       0.40067    0.73485    0.81086   1.00
H1       0.59944    0.72136    0.69458   1.00
C5       0.39465    0.76757    0.67854   1.00
H1       0.47253    0.76580    0.68933   1.00
H1       0.52770    0.72105    0.69427   1.00
H2       0.40163    0.74465    0.65668   1.00
H2       0.36253    0.76704    0.68303   1.00
N1       0.40605    0.80601    0.66389   1.00
C6       0.44190    0.81663    0.65183   1.00
C6       0.38243    0.83712    0.65963   1.00
C6       0.44127    0.85506    0.63989   1.00
C6       0.40344    0.86809    0.64486   1.00
H3       0.46719    0.79768    0.65163   1.00
H3       0.35169    0.83742    0.66694   1.00
H3       0.46564    0.87171    0.62875   1.00
H3       0.39242    0.89693    0.63841   1.00
H2       0.63772    0.78019    0.81021   1.00
H2       0.59999    0.81546    0.81801   1.00
N1       0.59477    0.76447    0.85170   1.00
C6       0.61922    0.74308    0.87738   1.00
C6       0.55715    0.76341    0.86902   1.00
C6       0.59723    0.72985    0.90843   1.00
C6       0.55909    0.74232    0.90329   1.00
H3       0.65008    0.73801    0.87301   1.00
H3       0.53124    0.77675    0.85683   1.00
H3       0.60795    0.71263    0.93259   1.00
H3       0.53495    0.73646    0.92273   1.00
C4       0.97915    0.75038    0.75004   1.00
C4       1.02085    0.74962    0.74996   1.00
C3       0.95751    0.76635    0.71868   1.00
C3       1.04252    0.74125    0.71584   1.00
C3       0.95738    0.73434    0.78127   1.00
C3       1.04259    0.75811    0.78404   1.00
C2       0.89482    0.75002    0.74984   1.00
C2       1.10518    0.75002    0.74984   1.00
C3a      0.91599    0.76626    0.71845   1.00
C3       1.08382    0.74145    0.71586   1.00
C3       0.91611    0.73419    0.78110   1.00
C3a      1.08403    0.75834    0.78418   1.00
H1       0.97294    0.77927    0.69435   1.00
H1       1.02750    0.73414    0.68897   1.00
C5       0.89410    0.78370    0.68463   1.00
H1       1.09933    0.73485    0.68914   1.00
H1       0.90056    0.72136    0.80542   1.00
C5       1.10535    0.76757    0.82146   1.00
H1       1.02747    0.76580    0.81067   1.00
H1       0.97230    0.72105    0.80573   1.00
H2       1.09837    0.74465    0.84332   1.00
H2       1.13747    0.76704    0.81697   1.00
N1       1.09395    0.80601    0.83611   1.00
C6       1.05810    0.81663    0.84817   1.00
C6       1.11757    0.83712    0.84037   1.00
C6       1.05873    0.85506    0.86011   1.00
C6       1.09656    0.86809    0.85514   1.00
H3       1.03281    0.79768    0.84837   1.00
H3       1.14831    0.83742    0.83306   1.00
H3       1.03436    0.87171    0.87125   1.00
H3       1.10758    0.89693    0.86159   1.00
H2       0.86228    0.78019    0.68979   1.00
H2       0.90001    0.81546    0.68199   1.00
N1       0.90523    0.76447    0.64830   1.00
C6       0.88078    0.74308    0.62262   1.00
C6       0.94285    0.76341    0.63098   1.00
C6       0.90277    0.72985    0.59157   1.00
C6       0.94091    0.74232    0.59671   1.00
H3       0.84992    0.73801    0.62699   1.00
H3       0.96876    0.77675    0.64317   1.00
H3       0.89205    0.71263    0.56741   1.00
H3       0.96505    0.73646    0.57727   1.00
C4       0.74996    0.52085    0.75038   1.00
C4       0.75004    0.47915    0.74962   1.00
C3       0.78132    0.54249    0.76635   1.00
C3       0.78416    0.45748    0.74125   1.00
C3       0.71873    0.54262    0.73434   1.00
C3       0.71596    0.45741    0.75811   1.00
C2       0.75016    0.60518    0.75002   1.00
C2       0.75016    0.39482    0.75002   1.00
C3a      0.78155    0.58401    0.76626   1.00
C3       0.78414    0.41618    0.74145   1.00
C3       0.71890    0.58389    0.73419   1.00
C3a      0.71582    0.41597    0.75834   1.00
H1       0.80565    0.52706    0.77927   1.00
H1       0.81103    0.47250    0.73414   1.00
C5       0.81537    0.60590    0.78370   1.00
H1       0.81086    0.40067    0.73485   1.00
H1       0.69458    0.59944    0.72136   1.00
C5       0.67854    0.39465    0.76757   1.00
H1       0.68933    0.47253    0.76580   1.00
H1       0.69427    0.52770    0.72105   1.00
H2       0.65668    0.40163    0.74465   1.00
H2       0.68303    0.36253    0.76704   1.00
N1       0.66389    0.40605    0.80601   1.00
C6       0.65183    0.44190    0.81663   1.00
C6       0.65963    0.38243    0.83712   1.00
C6       0.63989    0.44127    0.85506   1.00
C6       0.64486    0.40344    0.86809   1.00
H3       0.65163    0.46719    0.79768   1.00
H3       0.66694    0.35169    0.83742   1.00
H3       0.62875    0.46564    0.87171   1.00
H3       0.63841    0.39242    0.89693   1.00
H2       0.81021    0.63772    0.78019   1.00
H2       0.81801    0.59999    0.81546   1.00
N1       0.85170    0.59477    0.76447   1.00
C6       0.87738    0.61922    0.74308   1.00
C6       0.86902    0.55715    0.76341   1.00
C6       0.90843    0.59723    0.72985   1.00
C6       0.90329    0.55909    0.74232   1.00
H3       0.87301    0.65008    0.73801   1.00
H3       0.85683    0.53124    0.77675   1.00
H3       0.93259    0.60795    0.71263   1.00
H3       0.92273    0.53495    0.73646   1.00
C4       0.75038    0.74996    0.52085   1.00
C4       0.74962    0.75004    0.47915   1.00
C3       0.76635    0.78132    0.54249   1.00
C3       0.74125    0.78416    0.45748   1.00
C3       0.73434    0.71873    0.54262   1.00
C3       0.75811    0.71596    0.45741   1.00
C2       0.75002    0.75016    0.60518   1.00
C2       0.75002    0.75016    0.39482   1.00
C3a      0.76626    0.78155    0.58401   1.00
C3       0.74145    0.78414    0.41618   1.00
C3       0.73419    0.71890    0.58389   1.00
C3a      0.75834    0.71582    0.41597   1.00
H1       0.77927    0.80565    0.52706   1.00
H1       0.73414    0.81103    0.47250   1.00
C5       0.78370    0.81537    0.60590   1.00
H1       0.73485    0.81086    0.40067   1.00
H1       0.72136    0.69458    0.59944   1.00
C5       0.76757    0.67854    0.39465   1.00
H1       0.76580    0.68933    0.47253   1.00
H1       0.72105    0.69427    0.52770   1.00
H2       0.74465    0.65668    0.40163   1.00
H2       0.76704    0.68303    0.36253   1.00
N1       0.80601    0.66389    0.40605   1.00
C6       0.81663    0.65183    0.44190   1.00
C6       0.83712    0.65963    0.38243   1.00
C6       0.85506    0.63989    0.44127   1.00
C6       0.86809    0.64486    0.40344   1.00
H3       0.79768    0.65163    0.46719   1.00
H3       0.83742    0.66694    0.35169   1.00
H3       0.87171    0.62875    0.46564   1.00
H3       0.89693    0.63841    0.39242   1.00
H2       0.78019    0.81021    0.63772   1.00
H2       0.81546    0.81801    0.59999   1.00
N1       0.76447    0.85170    0.59477   1.00
C6       0.74308    0.87738    0.61922   1.00
C6       0.76341    0.86902    0.55715   1.00
C6       0.72985    0.90843    0.59723   1.00
C6       0.74232    0.90329    0.55909   1.00
H3       0.73801    0.87301    0.65008   1.00
H3       0.77675    0.85683    0.53124   1.00
H3       0.71263    0.93259    0.60795   1.00
H3       0.73646    0.92273    0.53495   1.00
C4       0.25038    0.25004    0.97915   1.00
C4       0.24962    0.24996    1.02085   1.00
C3       0.26635    0.21868    0.95751   1.00
C3       0.24125    0.21584    1.04252   1.00
C3       0.23434    0.28127    0.95738   1.00
C3       0.25811    0.28404    1.04259   1.00
C2       0.25002    0.24984    0.89482   1.00
C2       0.25002    0.24984    1.10518   1.00
C3a      0.26626    0.21845    0.91599   1.00
C3       0.24145    0.21586    1.08382   1.00
C3       0.23419    0.28110    0.91611   1.00
C3a      0.25834    0.28418    1.08403   1.00
H1       0.27927    0.19435    0.97294   1.00
H1       0.23414    0.18897    1.02750   1.00
C5       0.28370    0.18463    0.89410   1.00
H1       0.23485    0.18914    1.09933   1.00
H1       0.22136    0.30542    0.90056   1.00
C5       0.26757    0.32146    1.10535   1.00
H1       0.26580    0.31067    1.02747   1.00
H1       0.22105    0.30573    0.97230   1.00
H2       0.24465    0.34332    1.09837   1.00
H2       0.26704    0.31697    1.13747   1.00
N1       0.30601    0.33611    1.09395   1.00
C6       0.31663    0.34817    1.05810   1.00
C6       0.33712    0.34037    1.11757   1.00
C6       0.35506    0.36011    1.05873   1.00
C6       0.36809    0.35514    1.09656   1.00
H3       0.29768    0.34837    1.03281   1.00
H3       0.33742    0.33306    1.14831   1.00
H3       0.37171    0.37125    1.03436   1.00
H3       0.39693    0.36159    1.10758   1.00
H2       0.28019    0.18979    0.86228   1.00
H2       0.31546    0.18199    0.90001   1.00
N1       0.26447    0.14830    0.90523   1.00
C6       0.24308    0.12262    0.88078   1.00
C6       0.26341    0.13098    0.94285   1.00
C6       0.22985    0.09157    0.90277   1.00
C6       0.24232    0.09671    0.94091   1.00
H3       0.23801    0.12699    0.84992   1.00
H3       0.27675    0.14317    0.96876   1.00
H3       0.21263    0.06741    0.89205   1.00
H3       0.23646    0.07727    0.96505   1.00
C4       0.25004    0.47915    0.75038   1.00
C4       0.24996    0.52085    0.74962   1.00
C3       0.21868    0.45751    0.76635   1.00
C3       0.21584    0.54252    0.74125   1.00
C3       0.28127    0.45738    0.73434   1.00
C3       0.28404    0.54259    0.75811   1.00
C2       0.24984    0.39482    0.75002   1.00
C2       0.24984    0.60518    0.75002   1.00
C3a      0.21845    0.41599    0.76626   1.00
C3       0.21586    0.58382    0.74145   1.00
C3       0.28110    0.41611    0.73419   1.00
C3a      0.28418    0.58403    0.75834   1.00
H1       0.19435    0.47294    0.77927   1.00
H1       0.18897    0.52750    0.73414   1.00
C5       0.18463    0.39410    0.78370   1.00
H1       0.18914    0.59933    0.73485   1.00
H1       0.30542    0.40056    0.72136   1.00
C5       0.32146    0.60535    0.76757   1.00
H1       0.31067    0.52747    0.76580   1.00
H1       0.30573    0.47230    0.72105   1.00
H2       0.34332    0.59837    0.74465   1.00
H2       0.31697    0.63747    0.76704   1.00
N1       0.33611    0.59395    0.80601   1.00
C6       0.34817    0.55810    0.81663   1.00
C6       0.34037    0.61757    0.83712   1.00
C6       0.36011    0.55873    0.85506   1.00
C6       0.35514    0.59656    0.86809   1.00
H3       0.34837    0.53281    0.79768   1.00
H3       0.33306    0.64831    0.83742   1.00
H3       0.37125    0.53436    0.87171   1.00
H3       0.36159    0.60758    0.89693   1.00
H2       0.18979    0.36228    0.78019   1.00
H2       0.18199    0.40001    0.81546   1.00
N1       0.14830    0.40523    0.76447   1.00
C6       0.12262    0.38078    0.74308   1.00
C6       0.13098    0.44285    0.76341   1.00
C6       0.09157    0.40277    0.72985   1.00
C6       0.09671    0.44091    0.74232   1.00
H3       0.12699    0.34992    0.73801   1.00
H3       0.14317    0.46876    0.77675   1.00
H3       0.06741    0.39205    0.71263   1.00
H3       0.07727    0.46505    0.73646   1.00
C4       0.02085    0.25038    0.74996   1.00
C4       -0.02085   0.24962    0.75004   1.00
C3       0.04249    0.26635    0.78132   1.00
C3       -0.04252   0.24125    0.78416   1.00
C3       0.04262    0.23434    0.71873   1.00
C3       -0.04259   0.25811    0.71596   1.00
C2       0.10518    0.25002    0.75016   1.00
C2       -0.10518   0.25002    0.75016   1.00
C3a      0.08401    0.26626    0.78155   1.00
C3       -0.08382   0.24145    0.78414   1.00
C3       0.08389    0.23419    0.71890   1.00
C3a      -0.08403   0.25834    0.71582   1.00
H1       0.02706    0.27927    0.80565   1.00
H1       -0.02750   0.23414    0.81103   1.00
C5       0.10590    0.28370    0.81537   1.00
H1       -0.09933   0.23485    0.81086   1.00
H1       0.09944    0.22136    0.69458   1.00
C5       -0.10535   0.26757    0.67854   1.00
H1       -0.02747   0.26580    0.68933   1.00
H1       0.02770    0.22105    0.69427   1.00
H2       -0.09837   0.24465    0.65668   1.00
H2       -0.13747   0.26704    0.68303   1.00
N1       -0.09395   0.30601    0.66389   1.00
C6       -0.05810   0.31663    0.65183   1.00
C6       -0.11757   0.33712    0.65963   1.00
C6       -0.05873   0.35506    0.63989   1.00
C6       -0.09656   0.36809    0.64486   1.00
H3       -0.03281   0.29768    0.65163   1.00
H3       -0.14831   0.33742    0.66694   1.00
H3       -0.03436   0.37171    0.62875   1.00
H3       -0.10758   0.39693    0.63841   1.00
H2       0.13772    0.28019    0.81021   1.00
H2       0.09999    0.31546    0.81801   1.00
N1       0.09477    0.26447    0.85170   1.00
C6       0.11922    0.24308    0.87738   1.00
C6       0.05715    0.26341    0.86902   1.00
C6       0.09723    0.22985    0.90843   1.00
C6       0.05909    0.24232    0.90329   1.00
H3       0.15008    0.23801    0.87301   1.00
H3       0.03124    0.27675    0.85683   1.00
H3       0.10795    0.21263    0.93259   1.00
H3       0.03495    0.23646    0.92273   1.00
C4       0.47915    0.25038    0.75004   1.00
C4       0.52085    0.24962    0.74996   1.00
C3       0.45751    0.26635    0.71868   1.00
C3       0.54252    0.24125    0.71584   1.00
C3       0.45738    0.23434    0.78127   1.00
C3       0.54259    0.25811    0.78404   1.00
C2       0.39482    0.25002    0.74984   1.00
C2       0.60518    0.25002    0.74984   1.00
C3a      0.41599    0.26626    0.71845   1.00
C3       0.58382    0.24145    0.71586   1.00
C3       0.41611    0.23419    0.78110   1.00
C3a      0.58403    0.25834    0.78418   1.00
H1       0.47294    0.27927    0.69435   1.00
H1       0.52750    0.23414    0.68897   1.00
C5       0.39410    0.28370    0.68463   1.00
H1       0.59933    0.23485    0.68914   1.00
H1       0.40056    0.22136    0.80542   1.00
C5       0.60535    0.26757    0.82146   1.00
H1       0.52747    0.26580    0.81067   1.00
H1       0.47230    0.22105    0.80573   1.00
H2       0.59837    0.24465    0.84332   1.00
H2       0.63747    0.26704    0.81697   1.00
N1       0.59395    0.30601    0.83611   1.00
C6       0.55810    0.31663    0.84817   1.00
C6       0.61757    0.33712    0.84037   1.00
C6       0.55873    0.35506    0.86011   1.00
C6       0.59656    0.36809    0.85514   1.00
H3       0.53281    0.29768    0.84837   1.00
H3       0.64831    0.33742    0.83306   1.00
H3       0.53436    0.37171    0.87125   1.00
H3       0.60758    0.39693    0.86159   1.00
H2       0.36228    0.28019    0.68979   1.00
H2       0.40001    0.31546    0.68199   1.00
N1       0.40523    0.26447    0.64830   1.00
C6       0.38078    0.24308    0.62262   1.00
C6       0.44285    0.26341    0.63098   1.00
C6       0.40277    0.22985    0.59157   1.00
C6       0.44091    0.24232    0.59671   1.00
H3       0.34992    0.23801    0.62699   1.00
H3       0.46876    0.27675    0.64317   1.00
H3       0.39205    0.21263    0.56741   1.00
H3       0.46505    0.23646    0.57727   1.00
C4       0.24996    0.02085    0.75038   1.00
C4       0.25004    -0.02085   0.74962   1.00
C3       0.28132    0.04249    0.76635   1.00
C3       0.28416    -0.04252   0.74125   1.00
C3       0.21873    0.04262    0.73434   1.00
C3       0.21596    -0.04259   0.75811   1.00
C2       0.25016    0.10518    0.75002   1.00
C2       0.25016    -0.10518   0.75002   1.00
C3a      0.28155    0.08401    0.76626   1.00
C3       0.28414    -0.08382   0.74145   1.00
C3       0.21890    0.08389    0.73419   1.00
C3a      0.21582    -0.08403   0.75834   1.00
H1       0.30565    0.02706    0.77927   1.00
H1       0.31103    -0.02750   0.73414   1.00
C5       0.31537    0.10590    0.78370   1.00
H1       0.31086    -0.09933   0.73485   1.00
H1       0.19458    0.09944    0.72136   1.00
C5       0.17854    -0.10535   0.76757   1.00
H1       0.18933    -0.02747   0.76580   1.00
H1       0.19427    0.02770    0.72105   1.00
H2       0.15668    -0.09837   0.74465   1.00
H2       0.18303    -0.13747   0.76704   1.00
N1       0.16389    -0.09395   0.80601   1.00
C6       0.15183    -0.05810   0.81663   1.00
C6       0.15963    -0.11757   0.83712   1.00
C6       0.13989    -0.05873   0.85506   1.00
C6       0.14486    -0.09656   0.86809   1.00
H3       0.15163    -0.03281   0.79768   1.00
H3       0.16694    -0.14831   0.83742   1.00
H3       0.12875    -0.03436   0.87171   1.00
H3       0.13841    -0.10758   0.89693   1.00
H2       0.31021    0.13772    0.78019   1.00
H2       0.31801    0.09999    0.81546   1.00
N1       0.35170    0.09477    0.76447   1.00
C6       0.37738    0.11922    0.74308   1.00
C6       0.36902    0.05715    0.76341   1.00
C6       0.40843    0.09723    0.72985   1.00
C6       0.40329    0.05909    0.74232   1.00
H3       0.37301    0.15008    0.73801   1.00
H3       0.35683    0.03124    0.77675   1.00
H3       0.43259    0.10795    0.71263   1.00
H3       0.42273    0.03495    0.73646   1.00
C4       0.25038    0.24996    0.52085   1.00
C4       0.24962    0.25004    0.47915   1.00
C3       0.26635    0.28132    0.54249   1.00
C3       0.24125    0.28416    0.45748   1.00
C3       0.23434    0.21873    0.54262   1.00
C3       0.25811    0.21596    0.45741   1.00
C2       0.25002    0.25016    0.60518   1.00
C2       0.25002    0.25016    0.39482   1.00
C3a      0.26626    0.28155    0.58401   1.00
C3       0.24145    0.28414    0.41618   1.00
C3       0.23419    0.21890    0.58389   1.00
C3a      0.25834    0.21582    0.41597   1.00
H1       0.27927    0.30565    0.52706   1.00
H1       0.23414    0.31103    0.47250   1.00
C5       0.28370    0.31537    0.60590   1.00
H1       0.23485    0.31086    0.40067   1.00
H1       0.22136    0.19458    0.59944   1.00
C5       0.26757    0.17854    0.39465   1.00
H1       0.26580    0.18933    0.47253   1.00
H1       0.22105    0.19427    0.52770   1.00
H2       0.24465    0.15668    0.40163   1.00
H2       0.26704    0.18303    0.36253   1.00
N1       0.30601    0.16389    0.40605   1.00
C6       0.31663    0.15183    0.44190   1.00
C6       0.33712    0.15963    0.38243   1.00
C6       0.35506    0.13989    0.44127   1.00
C6       0.36809    0.14486    0.40344   1.00
H3       0.29768    0.15163    0.46719   1.00
H3       0.33742    0.16694    0.35169   1.00
H3       0.37171    0.12875    0.46564   1.00
H3       0.39693    0.13841    0.39242   1.00
H2       0.28019    0.31021    0.63772   1.00
H2       0.31546    0.31801    0.59999   1.00
N1       0.26447    0.35170    0.59477   1.00
C6       0.24308    0.37738    0.61922   1.00
C6       0.26341    0.36902    0.55715   1.00
C6       0.22985    0.40843    0.59723   1.00
C6       0.24232    0.40329    0.55909   1.00
H3       0.23801    0.37301    0.65008   1.00
H3       0.27675    0.35683    0.53124   1.00
H3       0.21263    0.43259    0.60795   1.00
H3       0.23646    0.42273    0.53495   1.00
C4       0.25038    0.75004    0.47915   1.00
C4       0.24962    0.74996    0.52085   1.00
C3       0.26635    0.71868    0.45751   1.00
C3       0.24125    0.71584    0.54252   1.00
C3       0.23434    0.78127    0.45738   1.00
C3       0.25811    0.78404    0.54259   1.00
C2       0.25002    0.74984    0.39482   1.00
C2       0.25002    0.74984    0.60518   1.00
C3a      0.26626    0.71845    0.41599   1.00
C3       0.24145    0.71586    0.58382   1.00
C3       0.23419    0.78110    0.41611   1.00
C3a      0.25834    0.78418    0.58403   1.00
H1       0.27927    0.69435    0.47294   1.00
H1       0.23414    0.68897    0.52750   1.00
C5       0.28370    0.68463    0.39410   1.00
H1       0.23485    0.68914    0.59933   1.00
H1       0.22136    0.80542    0.40056   1.00
C5       0.26757    0.82146    0.60535   1.00
H1       0.26580    0.81067    0.52747   1.00
H1       0.22105    0.80573    0.47230   1.00
H2       0.24465    0.84332    0.59837   1.00
H2       0.26704    0.81697    0.63747   1.00
N1       0.30601    0.83611    0.59395   1.00
C6       0.31663    0.84817    0.55810   1.00
C6       0.33712    0.84037    0.61757   1.00
C6       0.35506    0.86011    0.55873   1.00
C6       0.36809    0.85514    0.59656   1.00
H3       0.29768    0.84837    0.53281   1.00
H3       0.33742    0.83306    0.64831   1.00
H3       0.37171    0.87125    0.53436   1.00
H3       0.39693    0.86159    0.60758   1.00
H2       0.28019    0.68979    0.36228   1.00
H2       0.31546    0.68199    0.40001   1.00
N1       0.26447    0.64830    0.40523   1.00
C6       0.24308    0.62262    0.38078   1.00
C6       0.26341    0.63098    0.44285   1.00
C6       0.22985    0.59157    0.40277   1.00
C6       0.24232    0.59671    0.44091   1.00
H3       0.23801    0.62699    0.34992   1.00
H3       0.27675    0.64317    0.46876   1.00
H3       0.21263    0.56741    0.39205   1.00
H3       0.23646    0.57727    0.46505   1.00
C4       0.25004    0.97915    0.25038   1.00
C4       0.24996    1.02085    0.24962   1.00
C3       0.21868    0.95751    0.26635   1.00
C3       0.21584    1.04252    0.24125   1.00
C3       0.28127    0.95738    0.23434   1.00
C3       0.28404    1.04259    0.25811   1.00
C2       0.24984    0.89482    0.25002   1.00
C2       0.24984    1.10518    0.25002   1.00
C3a      0.21845    0.91599    0.26626   1.00
C3       0.21586    1.08382    0.24145   1.00
C3       0.28110    0.91611    0.23419   1.00
C3a      0.28418    1.08403    0.25834   1.00
H1       0.19435    0.97294    0.27927   1.00
H1       0.18897    1.02750    0.23414   1.00
C5       0.18463    0.89410    0.28370   1.00
H1       0.18914    1.09933    0.23485   1.00
H1       0.30542    0.90056    0.22136   1.00
C5       0.32146    1.10535    0.26757   1.00
H1       0.31067    1.02747    0.26580   1.00
H1       0.30573    0.97230    0.22105   1.00
H2       0.34332    1.09837    0.24465   1.00
H2       0.31697    1.13747    0.26704   1.00
N1       0.33611    1.09395    0.30601   1.00
C6       0.34817    1.05810    0.31663   1.00
C6       0.34037    1.11757    0.33712   1.00
C6       0.36011    1.05873    0.35506   1.00
C6       0.35514    1.09656    0.36809   1.00
H3       0.34837    1.03281    0.29768   1.00
H3       0.33306    1.14831    0.33742   1.00
H3       0.37125    1.03436    0.37171   1.00
H3       0.36159    1.10758    0.39693   1.00
H2       0.18979    0.86228    0.28019   1.00
H2       0.18199    0.90001    0.31546   1.00
N1       0.14830    0.90523    0.26447   1.00
C6       0.12262    0.88078    0.24308   1.00
C6       0.13098    0.94285    0.26341   1.00
C6       0.09157    0.90277    0.22985   1.00
C6       0.09671    0.94091    0.24232   1.00
H3       0.12699    0.84992    0.23801   1.00
H3       0.14317    0.96876    0.27675   1.00
H3       0.06741    0.89205    0.21263   1.00
H3       0.07727    0.96505    0.23646   1.00
C4       0.02085    0.75038    0.24996   1.00
C4       -0.02085   0.74962    0.25004   1.00
C3       0.04249    0.76635    0.28132   1.00
C3       -0.04252   0.74125    0.28416   1.00
C3       0.04262    0.73434    0.21873   1.00
C3       -0.04259   0.75811    0.21596   1.00
C2       0.10518    0.75002    0.25016   1.00
C2       -0.10518   0.75002    0.25016   1.00
C3a      0.08401    0.76626    0.28155   1.00
C3       -0.08382   0.74145    0.28414   1.00
C3       0.08389    0.73419    0.21890   1.00
C3a      -0.08403   0.75834    0.21582   1.00
H1       0.02706    0.77927    0.30565   1.00
H1       -0.02750   0.73414    0.31103   1.00
C5       0.10590    0.78370    0.31537   1.00
H1       -0.09933   0.73485    0.31086   1.00
H1       0.09944    0.72136    0.19458   1.00
C5       -0.10535   0.76757    0.17854   1.00
H1       -0.02747   0.76580    0.18933   1.00
H1       0.02770    0.72105    0.19427   1.00
H2       -0.09837   0.74465    0.15668   1.00
H2       -0.13747   0.76704    0.18303   1.00
N1       -0.09395   0.80601    0.16389   1.00
C6       -0.05810   0.81663    0.15183   1.00
C6       -0.11757   0.83712    0.15963   1.00
C6       -0.05873   0.85506    0.13989   1.00
C6       -0.09656   0.86809    0.14486   1.00
H3       -0.03281   0.79768    0.15163   1.00
H3       -0.14831   0.83742    0.16694   1.00
H3       -0.03436   0.87171    0.12875   1.00
H3       -0.10758   0.89693    0.13841   1.00
H2       0.13772    0.78019    0.31021   1.00
H2       0.09999    0.81546    0.31801   1.00
N1       0.09477    0.76447    0.35170   1.00
C6       0.11922    0.74308    0.37738   1.00
C6       0.05715    0.76341    0.36902   1.00
C6       0.09723    0.72985    0.40843   1.00
C6       0.05909    0.74232    0.40329   1.00
H3       0.15008    0.73801    0.37301   1.00
H3       0.03124    0.77675    0.35683   1.00
H3       0.10795    0.71263    0.43259   1.00
H3       0.03495    0.73646    0.42273   1.00
C4       0.47915    0.75038    0.25004   1.00
C4       0.52085    0.74962    0.24996   1.00
C3       0.45751    0.76635    0.21868   1.00
C3       0.54252    0.74125    0.21584   1.00
C3       0.45738    0.73434    0.28127   1.00
C3       0.54259    0.75811    0.28404   1.00
C2       0.39482    0.75002    0.24984   1.00
C2       0.60518    0.75002    0.24984   1.00
C3a      0.41599    0.76626    0.21845   1.00
C3       0.58382    0.74145    0.21586   1.00
C3       0.41611    0.73419    0.28110   1.00
C3a      0.58403    0.75834    0.28418   1.00
H1       0.47294    0.77927    0.19435   1.00
H1       0.52750    0.73414    0.18897   1.00
C5       0.39410    0.78370    0.18463   1.00
H1       0.59933    0.73485    0.18914   1.00
H1       0.40056    0.72136    0.30542   1.00
C5       0.60535    0.76757    0.32146   1.00
H1       0.52747    0.76580    0.31067   1.00
H1       0.47230    0.72105    0.30573   1.00
H2       0.59837    0.74465    0.34332   1.00
H2       0.63747    0.76704    0.31697   1.00
N1       0.59395    0.80601    0.33611   1.00
C6       0.55810    0.81663    0.34817   1.00
C6       0.61757    0.83712    0.34037   1.00
C6       0.55873    0.85506    0.36011   1.00
C6       0.59656    0.86809    0.35514   1.00
H3       0.53281    0.79768    0.34837   1.00
H3       0.64831    0.83742    0.33306   1.00
H3       0.53436    0.87171    0.37125   1.00
H3       0.60758    0.89693    0.36159   1.00
H2       0.36228    0.78019    0.18979   1.00
H2       0.40001    0.81546    0.18199   1.00
N1       0.40523    0.76447    0.14830   1.00
C6       0.38078    0.74308    0.12262   1.00
C6       0.44285    0.76341    0.13098   1.00
C6       0.40277    0.72985    0.09157   1.00
C6       0.44091    0.74232    0.09671   1.00
H3       0.34992    0.73801    0.12699   1.00
H3       0.46876    0.77675    0.14317   1.00
H3       0.39205    0.71263    0.06741   1.00
H3       0.46505    0.73646    0.07727   1.00
C4       0.24996    0.52085    0.25038   1.00
C4       0.25004    0.47915    0.24962   1.00
C3       0.28132    0.54249    0.26635   1.00
C3       0.28416    0.45748    0.24125   1.00
C3       0.21873    0.54262    0.23434   1.00
C3       0.21596    0.45741    0.25811   1.00
C2       0.25016    0.60518    0.25002   1.00
C2       0.25016    0.39482    0.25002   1.00
C3a      0.28155    0.58401    0.26626   1.00
C3       0.28414    0.41618    0.24145   1.00
C3       0.21890    0.58389    0.23419   1.00
C3a      0.21582    0.41597    0.25834   1.00
H1       0.30565    0.52706    0.27927   1.00
H1       0.31103    0.47250    0.23414   1.00
C5       0.31537    0.60590    0.28370   1.00
H1       0.31086    0.40067    0.23485   1.00
H1       0.19458    0.59944    0.22136   1.00
C5       0.17854    0.39465    0.26757   1.00
H1       0.18933    0.47253    0.26580   1.00
H1       0.19427    0.52770    0.22105   1.00
H2       0.15668    0.40163    0.24465   1.00
H2       0.18303    0.36253    0.26704   1.00
N1       0.16389    0.40605    0.30601   1.00
C6       0.15183    0.44190    0.31663   1.00
C6       0.15963    0.38243    0.33712   1.00
C6       0.13989    0.44127    0.35506   1.00
C6       0.14486    0.40344    0.36809   1.00
H3       0.15163    0.46719    0.29768   1.00
H3       0.16694    0.35169    0.33742   1.00
H3       0.12875    0.46564    0.37171   1.00
H3       0.13841    0.39242    0.39693   1.00
H2       0.31021    0.63772    0.28019   1.00
H2       0.31801    0.59999    0.31546   1.00
N1       0.35170    0.59477    0.26447   1.00
C6       0.37738    0.61922    0.24308   1.00
C6       0.36902    0.55715    0.26341   1.00
C6       0.40843    0.59723    0.22985   1.00
C6       0.40329    0.55909    0.24232   1.00
H3       0.37301    0.65008    0.23801   1.00
H3       0.35683    0.53124    0.27675   1.00
H3       0.43259    0.60795    0.21263   1.00
H3       0.42273    0.53495    0.23646   1.00
C4       0.25038    0.74996    0.02085   1.00
C4       0.24962    0.75004    -0.02085   1.00
C3       0.26635    0.78132    0.04249   1.00
C3       0.24125    0.78416    -0.04252   1.00
C3       0.23434    0.71873    0.04262   1.00
C3       0.25811    0.71596    -0.04259   1.00
C2       0.25002    0.75016    0.10518   1.00
C2       0.25002    0.75016    -0.10518   1.00
C3a      0.26626    0.78155    0.08401   1.00
C3       0.24145    0.78414    -0.08382   1.00
C3       0.23419    0.71890    0.08389   1.00
C3a      0.25834    0.71582    -0.08403   1.00
H1       0.27927    0.80565    0.02706   1.00
H1       0.23414    0.81103    -0.02750   1.00
C5       0.28370    0.81537    0.10590   1.00
H1       0.23485    0.81086    -0.09933   1.00
H1       0.22136    0.69458    0.09944   1.00
C5       0.26757    0.67854    -0.10535   1.00
H1       0.26580    0.68933    -0.02747   1.00
H1       0.22105    0.69427    0.02770   1.00
H2       0.24465    0.65668    -0.09837   1.00
H2       0.26704    0.68303    -0.13747   1.00
N1       0.30601    0.66389    -0.09395   1.00
C6       0.31663    0.65183    -0.05810   1.00
C6       0.33712    0.65963    -0.11757   1.00
C6       0.35506    0.63989    -0.05873   1.00
C6       0.36809    0.64486    -0.09656   1.00
H3       0.29768    0.65163    -0.03281   1.00
H3       0.33742    0.66694    -0.14831   1.00
H3       0.37171    0.62875    -0.03436   1.00
H3       0.39693    0.63841    -0.10758   1.00
H2       0.28019    0.81021    0.13772   1.00
H2       0.31546    0.81801    0.09999   1.00
N1       0.26447    0.85170    0.09477   1.00
C6       0.24308    0.87738    0.11922   1.00
C6       0.26341    0.86902    0.05715   1.00
C6       0.22985    0.90843    0.09723   1.00
C6       0.24232    0.90329    0.05909   1.00
H3       0.23801    0.87301    0.15008   1.00
H3       0.27675    0.85683    0.03124   1.00
H3       0.21263    0.93259    0.10795   1.00
H3       0.23646    0.92273    0.03495   1.00
C4       0.75038    0.25004    0.47915   1.00
C4       0.74962    0.24996    0.52085   1.00
C3       0.76635    0.21868    0.45751   1.00
C3       0.74125    0.21584    0.54252   1.00
C3       0.73434    0.28127    0.45738   1.00
C3       0.75811    0.28404    0.54259   1.00
C2       0.75002    0.24984    0.39482   1.00
C2       0.75002    0.24984    0.60518   1.00
C3a      0.76626    0.21845    0.41599   1.00
C3       0.74145    0.21586    0.58382   1.00
C3       0.73419    0.28110    0.41611   1.00
C3a      0.75834    0.28418    0.58403   1.00
H1       0.77927    0.19435    0.47294   1.00
H1       0.73414    0.18897    0.52750   1.00
C5       0.78370    0.18463    0.39410   1.00
H1       0.73485    0.18914    0.59933   1.00
H1       0.72136    0.30542    0.40056   1.00
C5       0.76757    0.32146    0.60535   1.00
H1       0.76580    0.31067    0.52747   1.00
H1       0.72105    0.30573    0.47230   1.00
H2       0.74465    0.34332    0.59837   1.00
H2       0.76704    0.31697    0.63747   1.00
N1       0.80601    0.33611    0.59395   1.00
C6       0.81663    0.34817    0.55810   1.00
C6       0.83712    0.34037    0.61757   1.00
C6       0.85506    0.36011    0.55873   1.00
C6       0.86809    0.35514    0.59656   1.00
H3       0.79768    0.34837    0.53281   1.00
H3       0.83742    0.33306    0.64831   1.00
H3       0.87171    0.37125    0.53436   1.00
H3       0.89693    0.36159    0.60758   1.00
H2       0.78019    0.18979    0.36228   1.00
H2       0.81546    0.18199    0.40001   1.00
N1       0.76447    0.14830    0.40523   1.00
C6       0.74308    0.12262    0.38078   1.00
C6       0.76341    0.13098    0.44285   1.00
C6       0.72985    0.09157    0.40277   1.00
C6       0.74232    0.09671    0.44091   1.00
H3       0.73801    0.12699    0.34992   1.00
H3       0.77675    0.14317    0.46876   1.00
H3       0.71263    0.06741    0.39205   1.00
H3       0.73646    0.07727    0.46505   1.00
C4       0.75004    0.47915    0.25038   1.00
C4       0.74996    0.52085    0.24962   1.00
C3       0.71868    0.45751    0.26635   1.00
C3       0.71584    0.54252    0.24125   1.00
C3       0.78127    0.45738    0.23434   1.00
C3       0.78404    0.54259    0.25811   1.00
C2       0.74984    0.39482    0.25002   1.00
C2       0.74984    0.60518    0.25002   1.00
C3a      0.71845    0.41599    0.26626   1.00
C3       0.71586    0.58382    0.24145   1.00
C3       0.78110    0.41611    0.23419   1.00
C3a      0.78418    0.58403    0.25834   1.00
H1       0.69435    0.47294    0.27927   1.00
H1       0.68897    0.52750    0.23414   1.00
C5       0.68463    0.39410    0.28370   1.00
H1       0.68914    0.59933    0.23485   1.00
H1       0.80542    0.40056    0.22136   1.00
C5       0.82146    0.60535    0.26757   1.00
H1       0.81067    0.52747    0.26580   1.00
H1       0.80573    0.47230    0.22105   1.00
H2       0.84332    0.59837    0.24465   1.00
H2       0.81697    0.63747    0.26704   1.00
N1       0.83611    0.59395    0.30601   1.00
C6       0.84817    0.55810    0.31663   1.00
C6       0.84037    0.61757    0.33712   1.00
C6       0.86011    0.55873    0.35506   1.00
C6       0.85514    0.59656    0.36809   1.00
H3       0.84837    0.53281    0.29768   1.00
H3       0.83306    0.64831    0.33742   1.00
H3       0.87125    0.53436    0.37171   1.00
H3       0.86159    0.60758    0.39693   1.00
H2       0.68979    0.36228    0.28019   1.00
H2       0.68199    0.40001    0.31546   1.00
N1       0.64830    0.40523    0.26447   1.00
C6       0.62262    0.38078    0.24308   1.00
C6       0.63098    0.44285    0.26341   1.00
C6       0.59157    0.40277    0.22985   1.00
C6       0.59671    0.44091    0.24232   1.00
H3       0.62699    0.34992    0.23801   1.00
H3       0.64317    0.46876    0.27675   1.00
H3       0.56741    0.39205    0.21263   1.00
H3       0.57727    0.46505    0.23646   1.00
C4       0.52085    0.25038    0.24996   1.00
C4       0.47915    0.24962    0.25004   1.00
C3       0.54249    0.26635    0.28132   1.00
C3       0.45748    0.24125    0.28416   1.00
C3       0.54262    0.23434    0.21873   1.00
C3       0.45741    0.25811    0.21596   1.00
C2       0.60518    0.25002    0.25016   1.00
C2       0.39482    0.25002    0.25016   1.00
C3a      0.58401    0.26626    0.28155   1.00
C3       0.41618    0.24145    0.28414   1.00
C3       0.58389    0.23419    0.21890   1.00
C3a      0.41597    0.25834    0.21582   1.00
H1       0.52706    0.27927    0.30565   1.00
H1       0.47250    0.23414    0.31103   1.00
C5       0.60590    0.28370    0.31537   1.00
H1       0.40067    0.23485    0.31086   1.00
H1       0.59944    0.22136    0.19458   1.00
C5       0.39465    0.26757    0.17854   1.00
H1       0.47253    0.26580    0.18933   1.00
H1       0.52770    0.22105    0.19427   1.00
H2       0.40163    0.24465    0.15668   1.00
H2       0.36253    0.26704    0.18303   1.00
N1       0.40605    0.30601    0.16389   1.00
C6       0.44190    0.31663    0.15183   1.00
C6       0.38243    0.33712    0.15963   1.00
C6       0.44127    0.35506    0.13989   1.00
C6       0.40344    0.36809    0.14486   1.00
H3       0.46719    0.29768    0.15163   1.00
H3       0.35169    0.33742    0.16694   1.00
H3       0.46564    0.37171    0.12875   1.00
H3       0.39242    0.39693    0.13841   1.00
H2       0.63772    0.28019    0.31021   1.00
H2       0.59999    0.31546    0.31801   1.00
N1       0.59477    0.26447    0.35170   1.00
C6       0.61922    0.24308    0.37738   1.00
C6       0.55715    0.26341    0.36902   1.00
C6       0.59723    0.22985    0.40843   1.00
C6       0.55909    0.24232    0.40329   1.00
H3       0.65008    0.23801    0.37301   1.00
H3       0.53124    0.27675    0.35683   1.00
H3       0.60795    0.21263    0.43259   1.00
H3       0.53495    0.23646    0.42273   1.00
C4       0.97915    0.25038    0.25004   1.00
C4       1.02085    0.24962    0.24996   1.00
C3       0.95751    0.26635    0.21868   1.00
C3       1.04252    0.24125    0.21584   1.00
C3       0.95738    0.23434    0.28127   1.00
C3       1.04259    0.25811    0.28404   1.00
C2       0.89482    0.25002    0.24984   1.00
C2       1.10518    0.25002    0.24984   1.00
C3a      0.91599    0.26626    0.21845   1.00
C3       1.08382    0.24145    0.21586   1.00
C3       0.91611    0.23419    0.28110   1.00
C3a      1.08403    0.25834    0.28418   1.00
H1       0.97294    0.27927    0.19435   1.00
H1       1.02750    0.23414    0.18897   1.00
C5       0.89410    0.28370    0.18463   1.00
H1       1.09933    0.23485    0.18914   1.00
H1       0.90056    0.22136    0.30542   1.00
C5       1.10535    0.26757    0.32146   1.00
H1       1.02747    0.26580    0.31067   1.00
H1       0.97230    0.22105    0.30573   1.00
H2       1.09837    0.24465    0.34332   1.00
H2       1.13747    0.26704    0.31697   1.00
N1       1.09395    0.30601    0.33611   1.00
C6       1.05810    0.31663    0.34817   1.00
C6       1.11757    0.33712    0.34037   1.00
C6       1.05873    0.35506    0.36011   1.00
C6       1.09656    0.36809    0.35514   1.00
H3       1.03281    0.29768    0.34837   1.00
H3       1.14831    0.33742    0.33306   1.00
H3       1.03436    0.37171    0.37125   1.00
H3       1.10758    0.39693    0.36159   1.00
H2       0.86228    0.28019    0.18979   1.00
H2       0.90001    0.31546    0.18199   1.00
N1       0.90523    0.26447    0.14830   1.00
C6       0.88078    0.24308    0.12262   1.00
C6       0.94285    0.26341    0.13098   1.00
C6       0.90277    0.22985    0.09157   1.00
C6       0.94091    0.24232    0.09671   1.00
H3       0.84992    0.23801    0.12699   1.00
H3       0.96876    0.27675    0.14317   1.00
H3       0.89205    0.21263    0.06741   1.00
H3       0.96505    0.23646    0.07727   1.00
C4       0.74996    0.02085    0.25038   1.00
C4       0.75004    -0.02085   0.24962   1.00
C3       0.78132    0.04249    0.26635   1.00
C3       0.78416    -0.04252   0.24125   1.00
C3       0.71873    0.04262    0.23434   1.00
C3       0.71596    -0.04259   0.25811   1.00
C2       0.75016    0.10518    0.25002   1.00
C2       0.75016    -0.10518   0.25002   1.00
C3a      0.78155    0.08401    0.26626   1.00
C3       0.78414    -0.08382   0.24145   1.00
C3       0.71890    0.08389    0.23419   1.00
C3a      0.71582    -0.08403   0.25834   1.00
H1       0.80565    0.02706    0.27927   1.00
H1       0.81103    -0.02750   0.23414   1.00
C5       0.81537    0.10590    0.28370   1.00
H1       0.81086    -0.09933   0.23485   1.00
H1       0.69458    0.09944    0.22136   1.00
C5       0.67854    -0.10535   0.26757   1.00
H1       0.68933    -0.02747   0.26580   1.00
H1       0.69427    0.02770    0.22105   1.00
H2       0.65668    -0.09837   0.24465   1.00
H2       0.68303    -0.13747   0.26704   1.00
N1       0.66389    -0.09395   0.30601   1.00
C6       0.65183    -0.05810   0.31663   1.00
C6       0.65963    -0.11757   0.33712   1.00
C6       0.63989    -0.05873   0.35506   1.00
C6       0.64486    -0.09656   0.36809   1.00
H3       0.65163    -0.03281   0.29768   1.00
H3       0.66694    -0.14831   0.33742   1.00
H3       0.62875    -0.03436   0.37171   1.00
H3       0.63841    -0.10758   0.39693   1.00
H2       0.81021    0.13772    0.28019   1.00
H2       0.81801    0.09999    0.31546   1.00
N1       0.85170    0.09477    0.26447   1.00
C6       0.87738    0.11922    0.24308   1.00
C6       0.86902    0.05715    0.26341   1.00
C6       0.90843    0.09723    0.22985   1.00
C6       0.90329    0.05909    0.24232   1.00
H3       0.87301    0.15008    0.23801   1.00
H3       0.85683    0.03124    0.27675   1.00
H3       0.93259    0.10795    0.21263   1.00
H3       0.92273    0.03495    0.23646   1.00
C4       0.75038    0.24996    0.02085   1.00
C4       0.74962    0.25004    -0.02085   1.00
C3       0.76635    0.28132    0.04249   1.00
C3       0.74125    0.28416    -0.04252   1.00
C3       0.73434    0.21873    0.04262   1.00
C3       0.75811    0.21596    -0.04259   1.00
C2       0.75002    0.25016    0.10518   1.00
C2       0.75002    0.25016    -0.10518   1.00
C3a      0.76626    0.28155    0.08401   1.00
C3       0.74145    0.28414    -0.08382   1.00
C3       0.73419    0.21890    0.08389   1.00
C3a      0.75834    0.21582    -0.08403   1.00
H1       0.77927    0.30565    0.02706   1.00
H1       0.73414    0.31103    -0.02750   1.00
C5       0.78370    0.31537    0.10590   1.00
H1       0.73485    0.31086    -0.09933   1.00
H1       0.72136    0.19458    0.09944   1.00
C5       0.76757    0.17854    -0.10535   1.00
H1       0.76580    0.18933    -0.02747   1.00
H1       0.72105    0.19427    0.02770   1.00
H2       0.74465    0.15668    -0.09837   1.00
H2       0.76704    0.18303    -0.13747   1.00
N1       0.80601    0.16389    -0.09395   1.00
C6       0.81663    0.15183    -0.05810   1.00
C6       0.83712    0.15963    -0.11757   1.00
C6       0.85506    0.13989    -0.05873   1.00
C6       0.86809    0.14486    -0.09656   1.00
H3       0.79768    0.15163    -0.03281   1.00
H3       0.83742    0.16694    -0.14831   1.00
H3       0.87171    0.12875    -0.03436   1.00
H3       0.89693    0.13841    -0.10758   1.00
H2       0.78019    0.31021    0.13772   1.00
H2       0.81546    0.31801    0.09999   1.00
N1       0.76447    0.35170    0.09477   1.00
C6       0.74308    0.37738    0.11922   1.00
C6       0.76341    0.36902    0.05715   1.00
C6       0.72985    0.40843    0.09723   1.00
C6       0.74232    0.40329    0.05909   1.00
H3       0.73801    0.37301    0.15008   1.00
H3       0.77675    0.35683    0.03124   1.00
H3       0.71263    0.43259    0.10795   1.00
H3       0.73646    0.42273    0.03495   1.00
