data_IRMOF10_SG202_Ligand10_label_p.

_audit_creation_method             'generated by an auxiliary program of Tobunporous'

_symmetry_space_group_name_H-M     'P 1'
_symmetry_Int_Tables_number        1
_symmetry_cell_setting             triclinic

_cell_length_a                    34.2800
_cell_length_b                    34.2800
_cell_length_c                    34.2800
_cell_angle_alpha                 90.0000
_cell_angle_beta                  90.0000
_cell_angle_gamma                 90.0000

loop_
_atom_site_label
_atom_site_fract_x
_atom_site_fract_y
_atom_site_fract_z
_atom_site_occupancy
O1       0.75000    0.75000    0.75000   1.00
Zn1      0.71720    0.78280    0.78280   1.00
Zn1      0.78280    0.71720    0.78280   1.00
Zn1      0.78280    0.78280    0.71720   1.00
Zn1      0.71720    0.71720    0.71720   1.00
O2       0.72650    0.77350    0.83820   1.00
O2       0.72650    0.83820    0.77350   1.00
O2       0.66180    0.77350    0.77350   1.00
O2       0.77350    0.72650    0.83820   1.00
O2       0.83820    0.72650    0.77350   1.00
O2       0.77350    0.66180    0.77350   1.00
O2       0.77350    0.83820    0.72650   1.00
O2       0.83820    0.77350    0.72650   1.00
O2       0.77350    0.77350    0.66180   1.00
O2       0.66180    0.72650    0.72650   1.00
O2       0.72650    0.66180    0.72650   1.00
O2       0.72650    0.72650    0.66180   1.00
C1       0.75000    0.75000    0.85520   1.00
C1       0.75000    0.85520    0.75000   1.00
C1       0.64480    0.75000    0.75000   1.00
C1       0.85520    0.75000    0.75000   1.00
C1       0.75000    0.64480    0.75000   1.00
C1       0.75000    0.75000    0.64480   1.00
O1       0.25000    0.25000    0.75000   1.00
Zn1      0.21720    0.28280    0.78280   1.00
Zn1      0.28280    0.21720    0.78280   1.00
Zn1      0.28280    0.28280    0.71720   1.00
Zn1      0.21720    0.21720    0.71720   1.00
O2       0.22650    0.27350    0.83820   1.00
O2       0.22650    0.33820    0.77350   1.00
O2       0.16180    0.27350    0.77350   1.00
O2       0.27350    0.22650    0.83820   1.00
O2       0.33820    0.22650    0.77350   1.00
O2       0.27350    0.16180    0.77350   1.00
O2       0.27350    0.33820    0.72650   1.00
O2       0.33820    0.27350    0.72650   1.00
O2       0.27350    0.27350    0.66180   1.00
O2       0.16180    0.22650    0.72650   1.00
O2       0.22650    0.16180    0.72650   1.00
O2       0.22650    0.22650    0.66180   1.00
C1       0.25000    0.25000    0.85520   1.00
C1       0.25000    0.35520    0.75000   1.00
C1       0.14480    0.25000    0.75000   1.00
C1       0.35520    0.25000    0.75000   1.00
C1       0.25000    0.14480    0.75000   1.00
C1       0.25000    0.25000    0.64480   1.00
O1       0.25000    0.75000    0.25000   1.00
Zn1      0.21720    0.78280    0.28280   1.00
Zn1      0.28280    0.71720    0.28280   1.00
Zn1      0.28280    0.78280    0.21720   1.00
Zn1      0.21720    0.71720    0.21720   1.00
O2       0.22650    0.77350    0.33820   1.00
O2       0.22650    0.83820    0.27350   1.00
O2       0.16180    0.77350    0.27350   1.00
O2       0.27350    0.72650    0.33820   1.00
O2       0.33820    0.72650    0.27350   1.00
O2       0.27350    0.66180    0.27350   1.00
O2       0.27350    0.83820    0.22650   1.00
O2       0.33820    0.77350    0.22650   1.00
O2       0.27350    0.77350    0.16180   1.00
O2       0.16180    0.72650    0.22650   1.00
O2       0.22650    0.66180    0.22650   1.00
O2       0.22650    0.72650    0.16180   1.00
C1       0.25000    0.75000    0.35520   1.00
C1       0.25000    0.85520    0.25000   1.00
C1       0.14480    0.75000    0.25000   1.00
C1       0.35520    0.75000    0.25000   1.00
C1       0.25000    0.64480    0.25000   1.00
C1       0.25000    0.75000    0.14480   1.00
O1       0.75000    0.25000    0.25000   1.00
Zn1      0.71720    0.28280    0.28280   1.00
Zn1      0.78280    0.21720    0.28280   1.00
Zn1      0.78280    0.28280    0.21720   1.00
Zn1      0.71720    0.21720    0.21720   1.00
O2       0.72650    0.27350    0.33820   1.00
O2       0.72650    0.33820    0.27350   1.00
O2       0.66180    0.27350    0.27350   1.00
O2       0.77350    0.22650    0.33820   1.00
O2       0.83820    0.22650    0.27350   1.00
O2       0.77350    0.16180    0.27350   1.00
O2       0.77350    0.33820    0.22650   1.00
O2       0.83820    0.27350    0.22650   1.00
O2       0.77350    0.27350    0.16180   1.00
O2       0.66180    0.22650    0.22650   1.00
O2       0.72650    0.16180    0.22650   1.00
O2       0.72650    0.22650    0.16180   1.00
C1       0.75000    0.25000    0.35520   1.00
C1       0.75000    0.35520    0.25000   1.00
C1       0.64480    0.25000    0.25000   1.00
C1       0.85520    0.25000    0.25000   1.00
C1       0.75000    0.14480    0.25000   1.00
C1       0.75000    0.25000    0.14480   1.00
O1       0.25000    0.25000    0.25000   1.00
Zn1      0.28280    0.21720    0.21720   1.00
Zn1      0.21720    0.28280    0.21720   1.00
Zn1      0.21720    0.21720    0.28280   1.00
Zn1      0.28280    0.28280    0.28280   1.00
O2       0.27350    0.22650    0.16180   1.00
O2       0.27350    0.16180    0.22650   1.00
O2       0.33820    0.22650    0.22650   1.00
O2       0.22650    0.27350    0.16180   1.00
O2       0.16180    0.27350    0.22650   1.00
O2       0.22650    0.33820    0.22650   1.00
O2       0.22650    0.16180    0.27350   1.00
O2       0.16180    0.22650    0.27350   1.00
O2       0.22650    0.22650    0.33820   1.00
O2       0.33820    0.27350    0.27350   1.00
O2       0.27350    0.33820    0.27350   1.00
O2       0.27350    0.27350    0.33820   1.00
C1       0.25000    0.25000    0.14480   1.00
C1       0.25000    0.14480    0.25000   1.00
C1       0.35520    0.25000    0.25000   1.00
C1       0.14480    0.25000    0.25000   1.00
C1       0.25000    0.35520    0.25000   1.00
C1       0.25000    0.25000    0.35520   1.00
O1       0.75000    0.75000    0.25000   1.00
Zn1      0.78280    0.71720    0.21720   1.00
Zn1      0.71720    0.78280    0.21720   1.00
Zn1      0.71720    0.71720    0.28280   1.00
Zn1      0.78280    0.78280    0.28280   1.00
O2       0.77350    0.72650    0.16180   1.00
O2       0.77350    0.66180    0.22650   1.00
O2       0.83820    0.72650    0.22650   1.00
O2       0.72650    0.77350    0.16180   1.00
O2       0.66180    0.77350    0.22650   1.00
O2       0.72650    0.83820    0.22650   1.00
O2       0.72650    0.66180    0.27350   1.00
O2       0.66180    0.72650    0.27350   1.00
O2       0.72650    0.72650    0.33820   1.00
O2       0.83820    0.77350    0.27350   1.00
O2       0.77350    0.83820    0.27350   1.00
O2       0.77350    0.77350    0.33820   1.00
C1       0.75000    0.75000    0.14480   1.00
C1       0.75000    0.64480    0.25000   1.00
C1       0.85520    0.75000    0.25000   1.00
C1       0.64480    0.75000    0.25000   1.00
C1       0.75000    0.85520    0.25000   1.00
C1       0.75000    0.75000    0.35520   1.00
O1       0.75000    0.25000    0.75000   1.00
Zn1      0.78280    0.21720    0.71720   1.00
Zn1      0.71720    0.28280    0.71720   1.00
Zn1      0.71720    0.21720    0.78280   1.00
Zn1      0.78280    0.28280    0.78280   1.00
O2       0.77350    0.22650    0.66180   1.00
O2       0.77350    0.16180    0.72650   1.00
O2       0.83820    0.22650    0.72650   1.00
O2       0.72650    0.27350    0.66180   1.00
O2       0.66180    0.27350    0.72650   1.00
O2       0.72650    0.33820    0.72650   1.00
O2       0.72650    0.16180    0.77350   1.00
O2       0.66180    0.22650    0.77350   1.00
O2       0.72650    0.22650    0.83820   1.00
O2       0.83820    0.27350    0.77350   1.00
O2       0.77350    0.33820    0.77350   1.00
O2       0.77350    0.27350    0.83820   1.00
C1       0.75000    0.25000    0.64480   1.00
C1       0.75000    0.14480    0.75000   1.00
C1       0.85520    0.25000    0.75000   1.00
C1       0.64480    0.25000    0.75000   1.00
C1       0.75000    0.35520    0.75000   1.00
C1       0.75000    0.25000    0.85520   1.00
O1       0.25000    0.75000    0.75000   1.00
Zn1      0.28280    0.71720    0.71720   1.00
Zn1      0.21720    0.78280    0.71720   1.00
Zn1      0.21720    0.71720    0.78280   1.00
Zn1      0.28280    0.78280    0.78280   1.00
O2       0.27350    0.72650    0.66180   1.00
O2       0.27350    0.66180    0.72650   1.00
O2       0.33820    0.72650    0.72650   1.00
O2       0.22650    0.77350    0.66180   1.00
O2       0.16180    0.77350    0.72650   1.00
O2       0.22650    0.83820    0.72650   1.00
O2       0.22650    0.66180    0.77350   1.00
O2       0.16180    0.72650    0.77350   1.00
O2       0.22650    0.72650    0.83820   1.00
O2       0.33820    0.77350    0.77350   1.00
O2       0.27350    0.83820    0.77350   1.00
O2       0.27350    0.77350    0.83820   1.00
C1       0.25000    0.75000    0.64480   1.00
C1       0.25000    0.64480    0.75000   1.00
C1       0.35520    0.75000    0.75000   1.00
C1       0.14480    0.75000    0.75000   1.00
C1       0.25000    0.85520    0.75000   1.00
C1       0.25000    0.75000    0.85520   1.00
C4       0.75004    0.74962    0.97915   1.00
C4       0.74996    0.75038    1.02085   1.00
C3       0.71868    0.73365    0.95751   1.00
C3       0.71584    0.75875    1.04252   1.00
C3       0.78127    0.76566    0.95738   1.00
C3       0.78404    0.74189    1.04259   1.00
C2       0.74984    0.74998    0.89482   1.00
C2       0.74984    0.74998    1.10518   1.00
C3a      0.71845    0.73374    0.91599   1.00
C3       0.71586    0.75855    1.08382   1.00
C3       0.78110    0.76581    0.91611   1.00
C3a      0.78418    0.74166    1.08403   1.00
H1       0.69435    0.72073    0.97294   1.00
H1       0.68897    0.76586    1.02750   1.00
C5       0.68463    0.71630    0.89410   1.00
H1       0.68914    0.76515    1.09933   1.00
H1       0.80542    0.77864    0.90056   1.00
C5       0.82146    0.73243    1.10535   1.00
H1       0.81067    0.73420    1.02747   1.00
H1       0.80573    0.77895    0.97230   1.00
H2       0.84332    0.75535    1.09837   1.00
H2       0.81697    0.73296    1.13747   1.00
N1       0.83611    0.69399    1.09395   1.00
C6       0.84817    0.68337    1.05810   1.00
C6       0.84037    0.66288    1.11757   1.00
C6       0.86011    0.64494    1.05873   1.00
C6       0.85514    0.63191    1.09656   1.00
H3       0.84837    0.70232    1.03281   1.00
H3       0.83306    0.66258    1.14831   1.00
H3       0.87125    0.62829    1.03436   1.00
H3       0.86159    0.60307    1.10758   1.00
H2       0.68979    0.71981    0.86228   1.00
H2       0.68199    0.68454    0.90001   1.00
N1       0.64830    0.73553    0.90523   1.00
C6       0.62262    0.75692    0.88078   1.00
C6       0.63098    0.73659    0.94285   1.00
C6       0.59157    0.77015    0.90277   1.00
C6       0.59671    0.75768    0.94091   1.00
H3       0.62699    0.76199    0.84992   1.00
H3       0.64317    0.72325    0.96876   1.00
H3       0.56741    0.78737    0.89205   1.00
H3       0.57727    0.76354    0.96505   1.00
C4       0.74962    0.97915    0.75004   1.00
C4       0.75038    1.02085    0.74996   1.00
C3       0.73365    0.95751    0.71868   1.00
C3       0.75875    1.04252    0.71584   1.00
C3       0.76566    0.95738    0.78127   1.00
C3       0.74189    1.04259    0.78404   1.00
C2       0.74998    0.89482    0.74984   1.00
C2       0.74998    1.10518    0.74984   1.00
C3a      0.73374    0.91599    0.71845   1.00
C3       0.75855    1.08382    0.71586   1.00
C3       0.76581    0.91611    0.78110   1.00
C3a      0.74166    1.08403    0.78418   1.00
H1       0.72073    0.97294    0.69435   1.00
H1       0.76586    1.02750    0.68897   1.00
C5       0.71630    0.89410    0.68463   1.00
H1       0.76515    1.09933    0.68914   1.00
H1       0.77864    0.90056    0.80542   1.00
C5       0.73243    1.10535    0.82146   1.00
H1       0.73420    1.02747    0.81067   1.00
H1       0.77895    0.97230    0.80573   1.00
H2       0.75535    1.09837    0.84332   1.00
H2       0.73296    1.13747    0.81697   1.00
N1       0.69399    1.09395    0.83611   1.00
C6       0.68337    1.05810    0.84817   1.00
C6       0.66288    1.11757    0.84037   1.00
C6       0.64494    1.05873    0.86011   1.00
C6       0.63191    1.09656    0.85514   1.00
H3       0.70232    1.03281    0.84837   1.00
H3       0.66258    1.14831    0.83306   1.00
H3       0.62829    1.03436    0.87125   1.00
H3       0.60307    1.10758    0.86159   1.00
H2       0.71981    0.86228    0.68979   1.00
H2       0.68454    0.90001    0.68199   1.00
N1       0.73553    0.90523    0.64830   1.00
C6       0.75692    0.88078    0.62262   1.00
C6       0.73659    0.94285    0.63098   1.00
C6       0.77015    0.90277    0.59157   1.00
C6       0.75768    0.94091    0.59671   1.00
H3       0.76199    0.84992    0.62699   1.00
H3       0.72325    0.96876    0.64317   1.00
H3       0.78737    0.89205    0.56741   1.00
H3       0.76354    0.96505    0.57727   1.00
C4       0.52085    0.75004    0.75038   1.00
C4       0.47915    0.74996    0.74962   1.00
C3       0.54249    0.71868    0.76635   1.00
C3       0.45748    0.71584    0.74125   1.00
C3       0.54262    0.78127    0.73434   1.00
C3       0.45741    0.78404    0.75811   1.00
C2       0.60518    0.74984    0.75002   1.00
C2       0.39482    0.74984    0.75002   1.00
C3a      0.58401    0.71845    0.76626   1.00
C3       0.41618    0.71586    0.74145   1.00
C3       0.58389    0.78110    0.73419   1.00
C3a      0.41597    0.78418    0.75834   1.00
H1       0.52706    0.69435    0.77927   1.00
H1       0.47250    0.68897    0.73414   1.00
C5       0.60590    0.68463    0.78370   1.00
H1       0.40067    0.68914    0.73485   1.00
H1       0.59944    0.80542    0.72136   1.00
C5       0.39465    0.82146    0.76757   1.00
H1       0.47253    0.81067    0.76580   1.00
H1       0.52770    0.80573    0.72105   1.00
H2       0.40163    0.84332    0.74465   1.00
H2       0.36253    0.81697    0.76704   1.00
N1       0.40605    0.83611    0.80601   1.00
C6       0.44190    0.84817    0.81663   1.00
C6       0.38243    0.84037    0.83712   1.00
C6       0.44127    0.86011    0.85506   1.00
C6       0.40344    0.85514    0.86809   1.00
H3       0.46719    0.84837    0.79768   1.00
H3       0.35169    0.83306    0.83742   1.00
H3       0.46564    0.87125    0.87171   1.00
H3       0.39242    0.86159    0.89693   1.00
H2       0.63772    0.68979    0.78019   1.00
H2       0.59999    0.68199    0.81546   1.00
N1       0.59477    0.64830    0.76447   1.00
C6       0.61922    0.62262    0.74308   1.00
C6       0.55715    0.63098    0.76341   1.00
C6       0.59723    0.59157    0.72985   1.00
C6       0.55909    0.59671    0.74232   1.00
H3       0.65008    0.62699    0.73801   1.00
H3       0.53124    0.64317    0.77675   1.00
H3       0.60795    0.56741    0.71263   1.00
H3       0.53495    0.57727    0.73646   1.00
C4       0.97915    0.75004    0.74962   1.00
C4       1.02085    0.74996    0.75038   1.00
C3       0.95751    0.71868    0.73365   1.00
C3       1.04252    0.71584    0.75875   1.00
C3       0.95738    0.78127    0.76566   1.00
C3       1.04259    0.78404    0.74189   1.00
C2       0.89482    0.74984    0.74998   1.00
C2       1.10518    0.74984    0.74998   1.00
C3a      0.91599    0.71845    0.73374   1.00
C3       1.08382    0.71586    0.75855   1.00
C3       0.91611    0.78110    0.76581   1.00
C3a      1.08403    0.78418    0.74166   1.00
H1       0.97294    0.69435    0.72073   1.00
H1       1.02750    0.68897    0.76586   1.00
C5       0.89410    0.68463    0.71630   1.00
H1       1.09933    0.68914    0.76515   1.00
H1       0.90056    0.80542    0.77864   1.00
C5       1.10535    0.82146    0.73243   1.00
H1       1.02747    0.81067    0.73420   1.00
H1       0.97230    0.80573    0.77895   1.00
H2       1.09837    0.84332    0.75535   1.00
H2       1.13747    0.81697    0.73296   1.00
N1       1.09395    0.83611    0.69399   1.00
C6       1.05810    0.84817    0.68337   1.00
C6       1.11757    0.84037    0.66288   1.00
C6       1.05873    0.86011    0.64494   1.00
C6       1.09656    0.85514    0.63191   1.00
H3       1.03281    0.84837    0.70232   1.00
H3       1.14831    0.83306    0.66258   1.00
H3       1.03436    0.87125    0.62829   1.00
H3       1.10758    0.86159    0.60307   1.00
H2       0.86228    0.68979    0.71981   1.00
H2       0.90001    0.68199    0.68454   1.00
N1       0.90523    0.64830    0.73553   1.00
C6       0.88078    0.62262    0.75692   1.00
C6       0.94285    0.63098    0.73659   1.00
C6       0.90277    0.59157    0.77015   1.00
C6       0.94091    0.59671    0.75768   1.00
H3       0.84992    0.62699    0.76199   1.00
H3       0.96876    0.64317    0.72325   1.00
H3       0.89205    0.56741    0.78737   1.00
H3       0.96505    0.57727    0.76354   1.00
C4       0.75038    0.52085    0.75004   1.00
C4       0.74962    0.47915    0.74996   1.00
C3       0.76635    0.54249    0.71868   1.00
C3       0.74125    0.45748    0.71584   1.00
C3       0.73434    0.54262    0.78127   1.00
C3       0.75811    0.45741    0.78404   1.00
C2       0.75002    0.60518    0.74984   1.00
C2       0.75002    0.39482    0.74984   1.00
C3a      0.76626    0.58401    0.71845   1.00
C3       0.74145    0.41618    0.71586   1.00
C3       0.73419    0.58389    0.78110   1.00
C3a      0.75834    0.41597    0.78418   1.00
H1       0.77927    0.52706    0.69435   1.00
H1       0.73414    0.47250    0.68897   1.00
C5       0.78370    0.60590    0.68463   1.00
H1       0.73485    0.40067    0.68914   1.00
H1       0.72136    0.59944    0.80542   1.00
C5       0.76757    0.39465    0.82146   1.00
H1       0.76580    0.47253    0.81067   1.00
H1       0.72105    0.52770    0.80573   1.00
H2       0.74465    0.40163    0.84332   1.00
H2       0.76704    0.36253    0.81697   1.00
N1       0.80601    0.40605    0.83611   1.00
C6       0.81663    0.44190    0.84817   1.00
C6       0.83712    0.38243    0.84037   1.00
C6       0.85506    0.44127    0.86011   1.00
C6       0.86809    0.40344    0.85514   1.00
H3       0.79768    0.46719    0.84837   1.00
H3       0.83742    0.35169    0.83306   1.00
H3       0.87171    0.46564    0.87125   1.00
H3       0.89693    0.39242    0.86159   1.00
H2       0.78019    0.63772    0.68979   1.00
H2       0.81546    0.59999    0.68199   1.00
N1       0.76447    0.59477    0.64830   1.00
C6       0.74308    0.61922    0.62262   1.00
C6       0.76341    0.55715    0.63098   1.00
C6       0.72985    0.59723    0.59157   1.00
C6       0.74232    0.55909    0.59671   1.00
H3       0.73801    0.65008    0.62699   1.00
H3       0.77675    0.53124    0.64317   1.00
H3       0.71263    0.60795    0.56741   1.00
H3       0.73646    0.53495    0.57727   1.00
C4       0.75004    0.75038    0.52085   1.00
C4       0.74996    0.74962    0.47915   1.00
C3       0.71868    0.76635    0.54249   1.00
C3       0.71584    0.74125    0.45748   1.00
C3       0.78127    0.73434    0.54262   1.00
C3       0.78404    0.75811    0.45741   1.00
C2       0.74984    0.75002    0.60518   1.00
C2       0.74984    0.75002    0.39482   1.00
C3a      0.71845    0.76626    0.58401   1.00
C3       0.71586    0.74145    0.41618   1.00
C3       0.78110    0.73419    0.58389   1.00
C3a      0.78418    0.75834    0.41597   1.00
H1       0.69435    0.77927    0.52706   1.00
H1       0.68897    0.73414    0.47250   1.00
C5       0.68463    0.78370    0.60590   1.00
H1       0.68914    0.73485    0.40067   1.00
H1       0.80542    0.72136    0.59944   1.00
C5       0.82146    0.76757    0.39465   1.00
H1       0.81067    0.76580    0.47253   1.00
H1       0.80573    0.72105    0.52770   1.00
H2       0.84332    0.74465    0.40163   1.00
H2       0.81697    0.76704    0.36253   1.00
N1       0.83611    0.80601    0.40605   1.00
C6       0.84817    0.81663    0.44190   1.00
C6       0.84037    0.83712    0.38243   1.00
C6       0.86011    0.85506    0.44127   1.00
C6       0.85514    0.86809    0.40344   1.00
H3       0.84837    0.79768    0.46719   1.00
H3       0.83306    0.83742    0.35169   1.00
H3       0.87125    0.87171    0.46564   1.00
H3       0.86159    0.89693    0.39242   1.00
H2       0.68979    0.78019    0.63772   1.00
H2       0.68199    0.81546    0.59999   1.00
N1       0.64830    0.76447    0.59477   1.00
C6       0.62262    0.74308    0.61922   1.00
C6       0.63098    0.76341    0.55715   1.00
C6       0.59157    0.72985    0.59723   1.00
C6       0.59671    0.74232    0.55909   1.00
H3       0.62699    0.73801    0.65008   1.00
H3       0.64317    0.77675    0.53124   1.00
H3       0.56741    0.71263    0.60795   1.00
H3       0.57727    0.73646    0.53495   1.00
C4       0.25004    0.24962    0.97915   1.00
C4       0.24996    0.25038    1.02085   1.00
C3       0.21868    0.23365    0.95751   1.00
C3       0.21584    0.25875    1.04252   1.00
C3       0.28127    0.26566    0.95738   1.00
C3       0.28404    0.24189    1.04259   1.00
C2       0.24984    0.24998    0.89482   1.00
C2       0.24984    0.24998    1.10518   1.00
C3a      0.21845    0.23374    0.91599   1.00
C3       0.21586    0.25855    1.08382   1.00
C3       0.28110    0.26581    0.91611   1.00
C3a      0.28418    0.24166    1.08403   1.00
H1       0.19435    0.22073    0.97294   1.00
H1       0.18897    0.26586    1.02750   1.00
C5       0.18463    0.21630    0.89410   1.00
H1       0.18914    0.26515    1.09933   1.00
H1       0.30542    0.27864    0.90056   1.00
C5       0.32146    0.23243    1.10535   1.00
H1       0.31067    0.23420    1.02747   1.00
H1       0.30573    0.27895    0.97230   1.00
H2       0.34332    0.25535    1.09837   1.00
H2       0.31697    0.23296    1.13747   1.00
N1       0.33611    0.19399    1.09395   1.00
C6       0.34817    0.18337    1.05810   1.00
C6       0.34037    0.16288    1.11757   1.00
C6       0.36011    0.14494    1.05873   1.00
C6       0.35514    0.13191    1.09656   1.00
H3       0.34837    0.20232    1.03281   1.00
H3       0.33306    0.16258    1.14831   1.00
H3       0.37125    0.12829    1.03436   1.00
H3       0.36159    0.10307    1.10758   1.00
H2       0.18979    0.21981    0.86228   1.00
H2       0.18199    0.18454    0.90001   1.00
N1       0.14830    0.23553    0.90523   1.00
C6       0.12262    0.25692    0.88078   1.00
C6       0.13098    0.23659    0.94285   1.00
C6       0.09157    0.27015    0.90277   1.00
C6       0.09671    0.25768    0.94091   1.00
H3       0.12699    0.26199    0.84992   1.00
H3       0.14317    0.22325    0.96876   1.00
H3       0.06741    0.28737    0.89205   1.00
H3       0.07727    0.26354    0.96505   1.00
C4       0.24962    0.47915    0.75004   1.00
C4       0.25038    0.52085    0.74996   1.00
C3       0.23365    0.45751    0.71868   1.00
C3       0.25875    0.54252    0.71584   1.00
C3       0.26566    0.45738    0.78127   1.00
C3       0.24189    0.54259    0.78404   1.00
C2       0.24998    0.39482    0.74984   1.00
C2       0.24998    0.60518    0.74984   1.00
C3a      0.23374    0.41599    0.71845   1.00
C3       0.25855    0.58382    0.71586   1.00
C3       0.26581    0.41611    0.78110   1.00
C3a      0.24166    0.58403    0.78418   1.00
H1       0.22073    0.47294    0.69435   1.00
H1       0.26586    0.52750    0.68897   1.00
C5       0.21630    0.39410    0.68463   1.00
H1       0.26515    0.59933    0.68914   1.00
H1       0.27864    0.40056    0.80542   1.00
C5       0.23243    0.60535    0.82146   1.00
H1       0.23420    0.52747    0.81067   1.00
H1       0.27895    0.47230    0.80573   1.00
H2       0.25535    0.59837    0.84332   1.00
H2       0.23296    0.63747    0.81697   1.00
N1       0.19399    0.59395    0.83611   1.00
C6       0.18337    0.55810    0.84817   1.00
C6       0.16288    0.61757    0.84037   1.00
C6       0.14494    0.55873    0.86011   1.00
C6       0.13191    0.59656    0.85514   1.00
H3       0.20232    0.53281    0.84837   1.00
H3       0.16258    0.64831    0.83306   1.00
H3       0.12829    0.53436    0.87125   1.00
H3       0.10307    0.60758    0.86159   1.00
H2       0.21981    0.36228    0.68979   1.00
H2       0.18454    0.40001    0.68199   1.00
N1       0.23553    0.40523    0.64830   1.00
C6       0.25692    0.38078    0.62262   1.00
C6       0.23659    0.44285    0.63098   1.00
C6       0.27015    0.40277    0.59157   1.00
C6       0.25768    0.44091    0.59671   1.00
H3       0.26199    0.34992    0.62699   1.00
H3       0.22325    0.46876    0.64317   1.00
H3       0.28737    0.39205    0.56741   1.00
H3       0.26354    0.46505    0.57727   1.00
C4       0.02085    0.25004    0.75038   1.00
C4       -0.02085   0.24996    0.74962   1.00
C3       0.04249    0.21868    0.76635   1.00
C3       -0.04252   0.21584    0.74125   1.00
C3       0.04262    0.28127    0.73434   1.00
C3       -0.04259   0.28404    0.75811   1.00
C2       0.10518    0.24984    0.75002   1.00
C2       -0.10518   0.24984    0.75002   1.00
C3a      0.08401    0.21845    0.76626   1.00
C3       -0.08382   0.21586    0.74145   1.00
C3       0.08389    0.28110    0.73419   1.00
C3a      -0.08403   0.28418    0.75834   1.00
H1       0.02706    0.19435    0.77927   1.00
H1       -0.02750   0.18897    0.73414   1.00
C5       0.10590    0.18463    0.78370   1.00
H1       -0.09933   0.18914    0.73485   1.00
H1       0.09944    0.30542    0.72136   1.00
C5       -0.10535   0.32146    0.76757   1.00
H1       -0.02747   0.31067    0.76580   1.00
H1       0.02770    0.30573    0.72105   1.00
H2       -0.09837   0.34332    0.74465   1.00
H2       -0.13747   0.31697    0.76704   1.00
N1       -0.09395   0.33611    0.80601   1.00
C6       -0.05810   0.34817    0.81663   1.00
C6       -0.11757   0.34037    0.83712   1.00
C6       -0.05873   0.36011    0.85506   1.00
C6       -0.09656   0.35514    0.86809   1.00
H3       -0.03281   0.34837    0.79768   1.00
H3       -0.14831   0.33306    0.83742   1.00
H3       -0.03436   0.37125    0.87171   1.00
H3       -0.10758   0.36159    0.89693   1.00
H2       0.13772    0.18979    0.78019   1.00
H2       0.09999    0.18199    0.81546   1.00
N1       0.09477    0.14830    0.76447   1.00
C6       0.11922    0.12262    0.74308   1.00
C6       0.05715    0.13098    0.76341   1.00
C6       0.09723    0.09157    0.72985   1.00
C6       0.05909    0.09671    0.74232   1.00
H3       0.15008    0.12699    0.73801   1.00
H3       0.03124    0.14317    0.77675   1.00
H3       0.10795    0.06741    0.71263   1.00
H3       0.03495    0.07727    0.73646   1.00
C4       0.47915    0.25004    0.74962   1.00
C4       0.52085    0.24996    0.75038   1.00
C3       0.45751    0.21868    0.73365   1.00
C3       0.54252    0.21584    0.75875   1.00
C3       0.45738    0.28127    0.76566   1.00
C3       0.54259    0.28404    0.74189   1.00
C2       0.39482    0.24984    0.74998   1.00
C2       0.60518    0.24984    0.74998   1.00
C3a      0.41599    0.21845    0.73374   1.00
C3       0.58382    0.21586    0.75855   1.00
C3       0.41611    0.28110    0.76581   1.00
C3a      0.58403    0.28418    0.74166   1.00
H1       0.47294    0.19435    0.72073   1.00
H1       0.52750    0.18897    0.76586   1.00
C5       0.39410    0.18463    0.71630   1.00
H1       0.59933    0.18914    0.76515   1.00
H1       0.40056    0.30542    0.77864   1.00
C5       0.60535    0.32146    0.73243   1.00
H1       0.52747    0.31067    0.73420   1.00
H1       0.47230    0.30573    0.77895   1.00
H2       0.59837    0.34332    0.75535   1.00
H2       0.63747    0.31697    0.73296   1.00
N1       0.59395    0.33611    0.69399   1.00
C6       0.55810    0.34817    0.68337   1.00
C6       0.61757    0.34037    0.66288   1.00
C6       0.55873    0.36011    0.64494   1.00
C6       0.59656    0.35514    0.63191   1.00
H3       0.53281    0.34837    0.70232   1.00
H3       0.64831    0.33306    0.66258   1.00
H3       0.53436    0.37125    0.62829   1.00
H3       0.60758    0.36159    0.60307   1.00
H2       0.36228    0.18979    0.71981   1.00
H2       0.40001    0.18199    0.68454   1.00
N1       0.40523    0.14830    0.73553   1.00
C6       0.38078    0.12262    0.75692   1.00
C6       0.44285    0.13098    0.73659   1.00
C6       0.40277    0.09157    0.77015   1.00
C6       0.44091    0.09671    0.75768   1.00
H3       0.34992    0.12699    0.76199   1.00
H3       0.46876    0.14317    0.72325   1.00
H3       0.39205    0.06741    0.78737   1.00
H3       0.46505    0.07727    0.76354   1.00
C4       0.25038    0.02085    0.75004   1.00
C4       0.24962    -0.02085   0.74996   1.00
C3       0.26635    0.04249    0.71868   1.00
C3       0.24125    -0.04252   0.71584   1.00
C3       0.23434    0.04262    0.78127   1.00
C3       0.25811    -0.04259   0.78404   1.00
C2       0.25002    0.10518    0.74984   1.00
C2       0.25002    -0.10518   0.74984   1.00
C3a      0.26626    0.08401    0.71845   1.00
C3       0.24145    -0.08382   0.71586   1.00
C3       0.23419    0.08389    0.78110   1.00
C3a      0.25834    -0.08403   0.78418   1.00
H1       0.27927    0.02706    0.69435   1.00
H1       0.23414    -0.02750   0.68897   1.00
C5       0.28370    0.10590    0.68463   1.00
H1       0.23485    -0.09933   0.68914   1.00
H1       0.22136    0.09944    0.80542   1.00
C5       0.26757    -0.10535   0.82146   1.00
H1       0.26580    -0.02747   0.81067   1.00
H1       0.22105    0.02770    0.80573   1.00
H2       0.24465    -0.09837   0.84332   1.00
H2       0.26704    -0.13747   0.81697   1.00
N1       0.30601    -0.09395   0.83611   1.00
C6       0.31663    -0.05810   0.84817   1.00
C6       0.33712    -0.11757   0.84037   1.00
C6       0.35506    -0.05873   0.86011   1.00
C6       0.36809    -0.09656   0.85514   1.00
H3       0.29768    -0.03281   0.84837   1.00
H3       0.33742    -0.14831   0.83306   1.00
H3       0.37171    -0.03436   0.87125   1.00
H3       0.39693    -0.10758   0.86159   1.00
H2       0.28019    0.13772    0.68979   1.00
H2       0.31546    0.09999    0.68199   1.00
N1       0.26447    0.09477    0.64830   1.00
C6       0.24308    0.11922    0.62262   1.00
C6       0.26341    0.05715    0.63098   1.00
C6       0.22985    0.09723    0.59157   1.00
C6       0.24232    0.05909    0.59671   1.00
H3       0.23801    0.15008    0.62699   1.00
H3       0.27675    0.03124    0.64317   1.00
H3       0.21263    0.10795    0.56741   1.00
H3       0.23646    0.03495    0.57727   1.00
C4       0.25004    0.25038    0.52085   1.00
C4       0.24996    0.24962    0.47915   1.00
C3       0.21868    0.26635    0.54249   1.00
C3       0.21584    0.24125    0.45748   1.00
C3       0.28127    0.23434    0.54262   1.00
C3       0.28404    0.25811    0.45741   1.00
C2       0.24984    0.25002    0.60518   1.00
C2       0.24984    0.25002    0.39482   1.00
C3a      0.21845    0.26626    0.58401   1.00
C3       0.21586    0.24145    0.41618   1.00
C3       0.28110    0.23419    0.58389   1.00
C3a      0.28418    0.25834    0.41597   1.00
H1       0.19435    0.27927    0.52706   1.00
H1       0.18897    0.23414    0.47250   1.00
C5       0.18463    0.28370    0.60590   1.00
H1       0.18914    0.23485    0.40067   1.00
H1       0.30542    0.22136    0.59944   1.00
C5       0.32146    0.26757    0.39465   1.00
H1       0.31067    0.26580    0.47253   1.00
H1       0.30573    0.22105    0.52770   1.00
H2       0.34332    0.24465    0.40163   1.00
H2       0.31697    0.26704    0.36253   1.00
N1       0.33611    0.30601    0.40605   1.00
C6       0.34817    0.31663    0.44190   1.00
C6       0.34037    0.33712    0.38243   1.00
C6       0.36011    0.35506    0.44127   1.00
C6       0.35514    0.36809    0.40344   1.00
H3       0.34837    0.29768    0.46719   1.00
H3       0.33306    0.33742    0.35169   1.00
H3       0.37125    0.37171    0.46564   1.00
H3       0.36159    0.39693    0.39242   1.00
H2       0.18979    0.28019    0.63772   1.00
H2       0.18199    0.31546    0.59999   1.00
N1       0.14830    0.26447    0.59477   1.00
C6       0.12262    0.24308    0.61922   1.00
C6       0.13098    0.26341    0.55715   1.00
C6       0.09157    0.22985    0.59723   1.00
C6       0.09671    0.24232    0.55909   1.00
H3       0.12699    0.23801    0.65008   1.00
H3       0.14317    0.27675    0.53124   1.00
H3       0.06741    0.21263    0.60795   1.00
H3       0.07727    0.23646    0.53495   1.00
C4       0.25004    0.74962    0.47915   1.00
C4       0.24996    0.75038    0.52085   1.00
C3       0.21868    0.73365    0.45751   1.00
C3       0.21584    0.75875    0.54252   1.00
C3       0.28127    0.76566    0.45738   1.00
C3       0.28404    0.74189    0.54259   1.00
C2       0.24984    0.74998    0.39482   1.00
C2       0.24984    0.74998    0.60518   1.00
C3a      0.21845    0.73374    0.41599   1.00
C3       0.21586    0.75855    0.58382   1.00
C3       0.28110    0.76581    0.41611   1.00
C3a      0.28418    0.74166    0.58403   1.00
H1       0.19435    0.72073    0.47294   1.00
H1       0.18897    0.76586    0.52750   1.00
C5       0.18463    0.71630    0.39410   1.00
H1       0.18914    0.76515    0.59933   1.00
H1       0.30542    0.77864    0.40056   1.00
C5       0.32146    0.73243    0.60535   1.00
H1       0.31067    0.73420    0.52747   1.00
H1       0.30573    0.77895    0.47230   1.00
H2       0.34332    0.75535    0.59837   1.00
H2       0.31697    0.73296    0.63747   1.00
N1       0.33611    0.69399    0.59395   1.00
C6       0.34817    0.68337    0.55810   1.00
C6       0.34037    0.66288    0.61757   1.00
C6       0.36011    0.64494    0.55873   1.00
C6       0.35514    0.63191    0.59656   1.00
H3       0.34837    0.70232    0.53281   1.00
H3       0.33306    0.66258    0.64831   1.00
H3       0.37125    0.62829    0.53436   1.00
H3       0.36159    0.60307    0.60758   1.00
H2       0.18979    0.71981    0.36228   1.00
H2       0.18199    0.68454    0.40001   1.00
N1       0.14830    0.73553    0.40523   1.00
C6       0.12262    0.75692    0.38078   1.00
C6       0.13098    0.73659    0.44285   1.00
C6       0.09157    0.77015    0.40277   1.00
C6       0.09671    0.75768    0.44091   1.00
H3       0.12699    0.76199    0.34992   1.00
H3       0.14317    0.72325    0.46876   1.00
H3       0.06741    0.78737    0.39205   1.00
H3       0.07727    0.76354    0.46505   1.00
C4       0.24962    0.97915    0.25004   1.00
C4       0.25038    1.02085    0.24996   1.00
C3       0.23365    0.95751    0.21868   1.00
C3       0.25875    1.04252    0.21584   1.00
C3       0.26566    0.95738    0.28127   1.00
C3       0.24189    1.04259    0.28404   1.00
C2       0.24998    0.89482    0.24984   1.00
C2       0.24998    1.10518    0.24984   1.00
C3a      0.23374    0.91599    0.21845   1.00
C3       0.25855    1.08382    0.21586   1.00
C3       0.26581    0.91611    0.28110   1.00
C3a      0.24166    1.08403    0.28418   1.00
H1       0.22073    0.97294    0.19435   1.00
H1       0.26586    1.02750    0.18897   1.00
C5       0.21630    0.89410    0.18463   1.00
H1       0.26515    1.09933    0.18914   1.00
H1       0.27864    0.90056    0.30542   1.00
C5       0.23243    1.10535    0.32146   1.00
H1       0.23420    1.02747    0.31067   1.00
H1       0.27895    0.97230    0.30573   1.00
H2       0.25535    1.09837    0.34332   1.00
H2       0.23296    1.13747    0.31697   1.00
N1       0.19399    1.09395    0.33611   1.00
C6       0.18337    1.05810    0.34817   1.00
C6       0.16288    1.11757    0.34037   1.00
C6       0.14494    1.05873    0.36011   1.00
C6       0.13191    1.09656    0.35514   1.00
H3       0.20232    1.03281    0.34837   1.00
H3       0.16258    1.14831    0.33306   1.00
H3       0.12829    1.03436    0.37125   1.00
H3       0.10307    1.10758    0.36159   1.00
H2       0.21981    0.86228    0.18979   1.00
H2       0.18454    0.90001    0.18199   1.00
N1       0.23553    0.90523    0.14830   1.00
C6       0.25692    0.88078    0.12262   1.00
C6       0.23659    0.94285    0.13098   1.00
C6       0.27015    0.90277    0.09157   1.00
C6       0.25768    0.94091    0.09671   1.00
H3       0.26199    0.84992    0.12699   1.00
H3       0.22325    0.96876    0.14317   1.00
H3       0.28737    0.89205    0.06741   1.00
H3       0.26354    0.96505    0.07727   1.00
C4       0.02085    0.75004    0.25038   1.00
C4       -0.02085   0.74996    0.24962   1.00
C3       0.04249    0.71868    0.26635   1.00
C3       -0.04252   0.71584    0.24125   1.00
C3       0.04262    0.78127    0.23434   1.00
C3       -0.04259   0.78404    0.25811   1.00
C2       0.10518    0.74984    0.25002   1.00
C2       -0.10518   0.74984    0.25002   1.00
C3a      0.08401    0.71845    0.26626   1.00
C3       -0.08382   0.71586    0.24145   1.00
C3       0.08389    0.78110    0.23419   1.00
C3a      -0.08403   0.78418    0.25834   1.00
H1       0.02706    0.69435    0.27927   1.00
H1       -0.02750   0.68897    0.23414   1.00
C5       0.10590    0.68463    0.28370   1.00
H1       -0.09933   0.68914    0.23485   1.00
H1       0.09944    0.80542    0.22136   1.00
C5       -0.10535   0.82146    0.26757   1.00
H1       -0.02747   0.81067    0.26580   1.00
H1       0.02770    0.80573    0.22105   1.00
H2       -0.09837   0.84332    0.24465   1.00
H2       -0.13747   0.81697    0.26704   1.00
N1       -0.09395   0.83611    0.30601   1.00
C6       -0.05810   0.84817    0.31663   1.00
C6       -0.11757   0.84037    0.33712   1.00
C6       -0.05873   0.86011    0.35506   1.00
C6       -0.09656   0.85514    0.36809   1.00
H3       -0.03281   0.84837    0.29768   1.00
H3       -0.14831   0.83306    0.33742   1.00
H3       -0.03436   0.87125    0.37171   1.00
H3       -0.10758   0.86159    0.39693   1.00
H2       0.13772    0.68979    0.28019   1.00
H2       0.09999    0.68199    0.31546   1.00
N1       0.09477    0.64830    0.26447   1.00
C6       0.11922    0.62262    0.24308   1.00
C6       0.05715    0.63098    0.26341   1.00
C6       0.09723    0.59157    0.22985   1.00
C6       0.05909    0.59671    0.24232   1.00
H3       0.15008    0.62699    0.23801   1.00
H3       0.03124    0.64317    0.27675   1.00
H3       0.10795    0.56741    0.21263   1.00
H3       0.03495    0.57727    0.23646   1.00
C4       0.47915    0.75004    0.24962   1.00
C4       0.52085    0.74996    0.25038   1.00
C3       0.45751    0.71868    0.23365   1.00
C3       0.54252    0.71584    0.25875   1.00
C3       0.45738    0.78127    0.26566   1.00
C3       0.54259    0.78404    0.24189   1.00
C2       0.39482    0.74984    0.24998   1.00
C2       0.60518    0.74984    0.24998   1.00
C3a      0.41599    0.71845    0.23374   1.00
C3       0.58382    0.71586    0.25855   1.00
C3       0.41611    0.78110    0.26581   1.00
C3a      0.58403    0.78418    0.24166   1.00
H1       0.47294    0.69435    0.22073   1.00
H1       0.52750    0.68897    0.26586   1.00
C5       0.39410    0.68463    0.21630   1.00
H1       0.59933    0.68914    0.26515   1.00
H1       0.40056    0.80542    0.27864   1.00
C5       0.60535    0.82146    0.23243   1.00
H1       0.52747    0.81067    0.23420   1.00
H1       0.47230    0.80573    0.27895   1.00
H2       0.59837    0.84332    0.25535   1.00
H2       0.63747    0.81697    0.23296   1.00
N1       0.59395    0.83611    0.19399   1.00
C6       0.55810    0.84817    0.18337   1.00
C6       0.61757    0.84037    0.16288   1.00
C6       0.55873    0.86011    0.14494   1.00
C6       0.59656    0.85514    0.13191   1.00
H3       0.53281    0.84837    0.20232   1.00
H3       0.64831    0.83306    0.16258   1.00
H3       0.53436    0.87125    0.12829   1.00
H3       0.60758    0.86159    0.10307   1.00
H2       0.36228    0.68979    0.21981   1.00
H2       0.40001    0.68199    0.18454   1.00
N1       0.40523    0.64830    0.23553   1.00
C6       0.38078    0.62262    0.25692   1.00
C6       0.44285    0.63098    0.23659   1.00
C6       0.40277    0.59157    0.27015   1.00
C6       0.44091    0.59671    0.25768   1.00
H3       0.34992    0.62699    0.26199   1.00
H3       0.46876    0.64317    0.22325   1.00
H3       0.39205    0.56741    0.28737   1.00
H3       0.46505    0.57727    0.26354   1.00
C4       0.25038    0.52085    0.25004   1.00
C4       0.24962    0.47915    0.24996   1.00
C3       0.26635    0.54249    0.21868   1.00
C3       0.24125    0.45748    0.21584   1.00
C3       0.23434    0.54262    0.28127   1.00
C3       0.25811    0.45741    0.28404   1.00
C2       0.25002    0.60518    0.24984   1.00
C2       0.25002    0.39482    0.24984   1.00
C3a      0.26626    0.58401    0.21845   1.00
C3       0.24145    0.41618    0.21586   1.00
C3       0.23419    0.58389    0.28110   1.00
C3a      0.25834    0.41597    0.28418   1.00
H1       0.27927    0.52706    0.19435   1.00
H1       0.23414    0.47250    0.18897   1.00
C5       0.28370    0.60590    0.18463   1.00
H1       0.23485    0.40067    0.18914   1.00
H1       0.22136    0.59944    0.30542   1.00
C5       0.26757    0.39465    0.32146   1.00
H1       0.26580    0.47253    0.31067   1.00
H1       0.22105    0.52770    0.30573   1.00
H2       0.24465    0.40163    0.34332   1.00
H2       0.26704    0.36253    0.31697   1.00
N1       0.30601    0.40605    0.33611   1.00
C6       0.31663    0.44190    0.34817   1.00
C6       0.33712    0.38243    0.34037   1.00
C6       0.35506    0.44127    0.36011   1.00
C6       0.36809    0.40344    0.35514   1.00
H3       0.29768    0.46719    0.34837   1.00
H3       0.33742    0.35169    0.33306   1.00
H3       0.37171    0.46564    0.37125   1.00
H3       0.39693    0.39242    0.36159   1.00
H2       0.28019    0.63772    0.18979   1.00
H2       0.31546    0.59999    0.18199   1.00
N1       0.26447    0.59477    0.14830   1.00
C6       0.24308    0.61922    0.12262   1.00
C6       0.26341    0.55715    0.13098   1.00
C6       0.22985    0.59723    0.09157   1.00
C6       0.24232    0.55909    0.09671   1.00
H3       0.23801    0.65008    0.12699   1.00
H3       0.27675    0.53124    0.14317   1.00
H3       0.21263    0.60795    0.06741   1.00
H3       0.23646    0.53495    0.07727   1.00
C4       0.25004    0.75038    0.02085   1.00
C4       0.24996    0.74962    -0.02085   1.00
C3       0.21868    0.76635    0.04249   1.00
C3       0.21584    0.74125    -0.04252   1.00
C3       0.28127    0.73434    0.04262   1.00
C3       0.28404    0.75811    -0.04259   1.00
C2       0.24984    0.75002    0.10518   1.00
C2       0.24984    0.75002    -0.10518   1.00
C3a      0.21845    0.76626    0.08401   1.00
C3       0.21586    0.74145    -0.08382   1.00
C3       0.28110    0.73419    0.08389   1.00
C3a      0.28418    0.75834    -0.08403   1.00
H1       0.19435    0.77927    0.02706   1.00
H1       0.18897    0.73414    -0.02750   1.00
C5       0.18463    0.78370    0.10590   1.00
H1       0.18914    0.73485    -0.09933   1.00
H1       0.30542    0.72136    0.09944   1.00
C5       0.32146    0.76757    -0.10535   1.00
H1       0.31067    0.76580    -0.02747   1.00
H1       0.30573    0.72105    0.02770   1.00
H2       0.34332    0.74465    -0.09837   1.00
H2       0.31697    0.76704    -0.13747   1.00
N1       0.33611    0.80601    -0.09395   1.00
C6       0.34817    0.81663    -0.05810   1.00
C6       0.34037    0.83712    -0.11757   1.00
C6       0.36011    0.85506    -0.05873   1.00
C6       0.35514    0.86809    -0.09656   1.00
H3       0.34837    0.79768    -0.03281   1.00
H3       0.33306    0.83742    -0.14831   1.00
H3       0.37125    0.87171    -0.03436   1.00
H3       0.36159    0.89693    -0.10758   1.00
H2       0.18979    0.78019    0.13772   1.00
H2       0.18199    0.81546    0.09999   1.00
N1       0.14830    0.76447    0.09477   1.00
C6       0.12262    0.74308    0.11922   1.00
C6       0.13098    0.76341    0.05715   1.00
C6       0.09157    0.72985    0.09723   1.00
C6       0.09671    0.74232    0.05909   1.00
H3       0.12699    0.73801    0.15008   1.00
H3       0.14317    0.77675    0.03124   1.00
H3       0.06741    0.71263    0.10795   1.00
H3       0.07727    0.73646    0.03495   1.00
C4       0.75004    0.24962    0.47915   1.00
C4       0.74996    0.25038    0.52085   1.00
C3       0.71868    0.23365    0.45751   1.00
C3       0.71584    0.25875    0.54252   1.00
C3       0.78127    0.26566    0.45738   1.00
C3       0.78404    0.24189    0.54259   1.00
C2       0.74984    0.24998    0.39482   1.00
C2       0.74984    0.24998    0.60518   1.00
C3a      0.71845    0.23374    0.41599   1.00
C3       0.71586    0.25855    0.58382   1.00
C3       0.78110    0.26581    0.41611   1.00
C3a      0.78418    0.24166    0.58403   1.00
H1       0.69435    0.22073    0.47294   1.00
H1       0.68897    0.26586    0.52750   1.00
C5       0.68463    0.21630    0.39410   1.00
H1       0.68914    0.26515    0.59933   1.00
H1       0.80542    0.27864    0.40056   1.00
C5       0.82146    0.23243    0.60535   1.00
H1       0.81067    0.23420    0.52747   1.00
H1       0.80573    0.27895    0.47230   1.00
H2       0.84332    0.25535    0.59837   1.00
H2       0.81697    0.23296    0.63747   1.00
N1       0.83611    0.19399    0.59395   1.00
C6       0.84817    0.18337    0.55810   1.00
C6       0.84037    0.16288    0.61757   1.00
C6       0.86011    0.14494    0.55873   1.00
C6       0.85514    0.13191    0.59656   1.00
H3       0.84837    0.20232    0.53281   1.00
H3       0.83306    0.16258    0.64831   1.00
H3       0.87125    0.12829    0.53436   1.00
H3       0.86159    0.10307    0.60758   1.00
H2       0.68979    0.21981    0.36228   1.00
H2       0.68199    0.18454    0.40001   1.00
N1       0.64830    0.23553    0.40523   1.00
C6       0.62262    0.25692    0.38078   1.00
C6       0.63098    0.23659    0.44285   1.00
C6       0.59157    0.27015    0.40277   1.00
C6       0.59671    0.25768    0.44091   1.00
H3       0.62699    0.26199    0.34992   1.00
H3       0.64317    0.22325    0.46876   1.00
H3       0.56741    0.28737    0.39205   1.00
H3       0.57727    0.26354    0.46505   1.00
C4       0.74962    0.47915    0.25004   1.00
C4       0.75038    0.52085    0.24996   1.00
C3       0.73365    0.45751    0.21868   1.00
C3       0.75875    0.54252    0.21584   1.00
C3       0.76566    0.45738    0.28127   1.00
C3       0.74189    0.54259    0.28404   1.00
C2       0.74998    0.39482    0.24984   1.00
C2       0.74998    0.60518    0.24984   1.00
C3a      0.73374    0.41599    0.21845   1.00
C3       0.75855    0.58382    0.21586   1.00
C3       0.76581    0.41611    0.28110   1.00
C3a      0.74166    0.58403    0.28418   1.00
H1       0.72073    0.47294    0.19435   1.00
H1       0.76586    0.52750    0.18897   1.00
C5       0.71630    0.39410    0.18463   1.00
H1       0.76515    0.59933    0.18914   1.00
H1       0.77864    0.40056    0.30542   1.00
C5       0.73243    0.60535    0.32146   1.00
H1       0.73420    0.52747    0.31067   1.00
H1       0.77895    0.47230    0.30573   1.00
H2       0.75535    0.59837    0.34332   1.00
H2       0.73296    0.63747    0.31697   1.00
N1       0.69399    0.59395    0.33611   1.00
C6       0.68337    0.55810    0.34817   1.00
C6       0.66288    0.61757    0.34037   1.00
C6       0.64494    0.55873    0.36011   1.00
C6       0.63191    0.59656    0.35514   1.00
H3       0.70232    0.53281    0.34837   1.00
H3       0.66258    0.64831    0.33306   1.00
H3       0.62829    0.53436    0.37125   1.00
H3       0.60307    0.60758    0.36159   1.00
H2       0.71981    0.36228    0.18979   1.00
H2       0.68454    0.40001    0.18199   1.00
N1       0.73553    0.40523    0.14830   1.00
C6       0.75692    0.38078    0.12262   1.00
C6       0.73659    0.44285    0.13098   1.00
C6       0.77015    0.40277    0.09157   1.00
C6       0.75768    0.44091    0.09671   1.00
H3       0.76199    0.34992    0.12699   1.00
H3       0.72325    0.46876    0.14317   1.00
H3       0.78737    0.39205    0.06741   1.00
H3       0.76354    0.46505    0.07727   1.00
C4       0.52085    0.25004    0.25038   1.00
C4       0.47915    0.24996    0.24962   1.00
C3       0.54249    0.21868    0.26635   1.00
C3       0.45748    0.21584    0.24125   1.00
C3       0.54262    0.28127    0.23434   1.00
C3       0.45741    0.28404    0.25811   1.00
C2       0.60518    0.24984    0.25002   1.00
C2       0.39482    0.24984    0.25002   1.00
C3a      0.58401    0.21845    0.26626   1.00
C3       0.41618    0.21586    0.24145   1.00
C3       0.58389    0.28110    0.23419   1.00
C3a      0.41597    0.28418    0.25834   1.00
H1       0.52706    0.19435    0.27927   1.00
H1       0.47250    0.18897    0.23414   1.00
C5       0.60590    0.18463    0.28370   1.00
H1       0.40067    0.18914    0.23485   1.00
H1       0.59944    0.30542    0.22136   1.00
C5       0.39465    0.32146    0.26757   1.00
H1       0.47253    0.31067    0.26580   1.00
H1       0.52770    0.30573    0.22105   1.00
H2       0.40163    0.34332    0.24465   1.00
H2       0.36253    0.31697    0.26704   1.00
N1       0.40605    0.33611    0.30601   1.00
C6       0.44190    0.34817    0.31663   1.00
C6       0.38243    0.34037    0.33712   1.00
C6       0.44127    0.36011    0.35506   1.00
C6       0.40344    0.35514    0.36809   1.00
H3       0.46719    0.34837    0.29768   1.00
H3       0.35169    0.33306    0.33742   1.00
H3       0.46564    0.37125    0.37171   1.00
H3       0.39242    0.36159    0.39693   1.00
H2       0.63772    0.18979    0.28019   1.00
H2       0.59999    0.18199    0.31546   1.00
N1       0.59477    0.14830    0.26447   1.00
C6       0.61922    0.12262    0.24308   1.00
C6       0.55715    0.13098    0.26341   1.00
C6       0.59723    0.09157    0.22985   1.00
C6       0.55909    0.09671    0.24232   1.00
H3       0.65008    0.12699    0.23801   1.00
H3       0.53124    0.14317    0.27675   1.00
H3       0.60795    0.06741    0.21263   1.00
H3       0.53495    0.07727    0.23646   1.00
C4       0.97915    0.25004    0.24962   1.00
C4       1.02085    0.24996    0.25038   1.00
C3       0.95751    0.21868    0.23365   1.00
C3       1.04252    0.21584    0.25875   1.00
C3       0.95738    0.28127    0.26566   1.00
C3       1.04259    0.28404    0.24189   1.00
C2       0.89482    0.24984    0.24998   1.00
C2       1.10518    0.24984    0.24998   1.00
C3a      0.91599    0.21845    0.23374   1.00
C3       1.08382    0.21586    0.25855   1.00
C3       0.91611    0.28110    0.26581   1.00
C3a      1.08403    0.28418    0.24166   1.00
H1       0.97294    0.19435    0.22073   1.00
H1       1.02750    0.18897    0.26586   1.00
C5       0.89410    0.18463    0.21630   1.00
H1       1.09933    0.18914    0.26515   1.00
H1       0.90056    0.30542    0.27864   1.00
C5       1.10535    0.32146    0.23243   1.00
H1       1.02747    0.31067    0.23420   1.00
H1       0.97230    0.30573    0.27895   1.00
H2       1.09837    0.34332    0.25535   1.00
H2       1.13747    0.31697    0.23296   1.00
N1       1.09395    0.33611    0.19399   1.00
C6       1.05810    0.34817    0.18337   1.00
C6       1.11757    0.34037    0.16288   1.00
C6       1.05873    0.36011    0.14494   1.00
C6       1.09656    0.35514    0.13191   1.00
H3       1.03281    0.34837    0.20232   1.00
H3       1.14831    0.33306    0.16258   1.00
H3       1.03436    0.37125    0.12829   1.00
H3       1.10758    0.36159    0.10307   1.00
H2       0.86228    0.18979    0.21981   1.00
H2       0.90001    0.18199    0.18454   1.00
N1       0.90523    0.14830    0.23553   1.00
C6       0.88078    0.12262    0.25692   1.00
C6       0.94285    0.13098    0.23659   1.00
C6       0.90277    0.09157    0.27015   1.00
C6       0.94091    0.09671    0.25768   1.00
H3       0.84992    0.12699    0.26199   1.00
H3       0.96876    0.14317    0.22325   1.00
H3       0.89205    0.06741    0.28737   1.00
H3       0.96505    0.07727    0.26354   1.00
C4       0.75038    0.02085    0.25004   1.00
C4       0.74962    -0.02085   0.24996   1.00
C3       0.76635    0.04249    0.21868   1.00
C3       0.74125    -0.04252   0.21584   1.00
C3       0.73434    0.04262    0.28127   1.00
C3       0.75811    -0.04259   0.28404   1.00
C2       0.75002    0.10518    0.24984   1.00
C2       0.75002    -0.10518   0.24984   1.00
C3a      0.76626    0.08401    0.21845   1.00
C3       0.74145    -0.08382   0.21586   1.00
C3       0.73419    0.08389    0.28110   1.00
C3a      0.75834    -0.08403   0.28418   1.00
H1       0.77927    0.02706    0.19435   1.00
H1       0.73414    -0.02750   0.18897   1.00
C5       0.78370    0.10590    0.18463   1.00
H1       0.73485    -0.09933   0.18914   1.00
H1       0.72136    0.09944    0.30542   1.00
C5       0.76757    -0.10535   0.32146   1.00
H1       0.76580    -0.02747   0.31067   1.00
H1       0.72105    0.02770    0.30573   1.00
H2       0.74465    -0.09837   0.34332   1.00
H2       0.76704    -0.13747   0.31697   1.00
N1       0.80601    -0.09395   0.33611   1.00
C6       0.81663    -0.05810   0.34817   1.00
C6       0.83712    -0.11757   0.34037   1.00
C6       0.85506    -0.05873   0.36011   1.00
C6       0.86809    -0.09656   0.35514   1.00
H3       0.79768    -0.03281   0.34837   1.00
H3       0.83742    -0.14831   0.33306   1.00
H3       0.87171    -0.03436   0.37125   1.00
H3       0.89693    -0.10758   0.36159   1.00
H2       0.78019    0.13772    0.18979   1.00
H2       0.81546    0.09999    0.18199   1.00
N1       0.76447    0.09477    0.14830   1.00
C6       0.74308    0.11922    0.12262   1.00
C6       0.76341    0.05715    0.13098   1.00
C6       0.72985    0.09723    0.09157   1.00
C6       0.74232    0.05909    0.09671   1.00
H3       0.73801    0.15008    0.12699   1.00
H3       0.77675    0.03124    0.14317   1.00
H3       0.71263    0.10795    0.06741   1.00
H3       0.73646    0.03495    0.07727   1.00
C4       0.75004    0.25038    0.02085   1.00
C4       0.74996    0.24962    -0.02085   1.00
C3       0.71868    0.26635    0.04249   1.00
C3       0.71584    0.24125    -0.04252   1.00
C3       0.78127    0.23434    0.04262   1.00
C3       0.78404    0.25811    -0.04259   1.00
C2       0.74984    0.25002    0.10518   1.00
C2       0.74984    0.25002    -0.10518   1.00
C3a      0.71845    0.26626    0.08401   1.00
C3       0.71586    0.24145    -0.08382   1.00
C3       0.78110    0.23419    0.08389   1.00
C3a      0.78418    0.25834    -0.08403   1.00
H1       0.69435    0.27927    0.02706   1.00
H1       0.68897    0.23414    -0.02750   1.00
C5       0.68463    0.28370    0.10590   1.00
H1       0.68914    0.23485    -0.09933   1.00
H1       0.80542    0.22136    0.09944   1.00
C5       0.82146    0.26757    -0.10535   1.00
H1       0.81067    0.26580    -0.02747   1.00
H1       0.80573    0.22105    0.02770   1.00
H2       0.84332    0.24465    -0.09837   1.00
H2       0.81697    0.26704    -0.13747   1.00
N1       0.83611    0.30601    -0.09395   1.00
C6       0.84817    0.31663    -0.05810   1.00
C6       0.84037    0.33712    -0.11757   1.00
C6       0.86011    0.35506    -0.05873   1.00
C6       0.85514    0.36809    -0.09656   1.00
H3       0.84837    0.29768    -0.03281   1.00
H3       0.83306    0.33742    -0.14831   1.00
H3       0.87125    0.37171    -0.03436   1.00
H3       0.86159    0.39693    -0.10758   1.00
H2       0.68979    0.28019    0.13772   1.00
H2       0.68199    0.31546    0.09999   1.00
N1       0.64830    0.26447    0.09477   1.00
C6       0.62262    0.24308    0.11922   1.00
C6       0.63098    0.26341    0.05715   1.00
C6       0.59157    0.22985    0.09723   1.00
C6       0.59671    0.24232    0.05909   1.00
H3       0.62699    0.23801    0.15008   1.00
H3       0.64317    0.27675    0.03124   1.00
H3       0.56741    0.21263    0.10795   1.00
H3       0.57727    0.23646    0.03495   1.00
