data_IRMOF10_SG202_Ligand3_label_i.

_audit_creation_method             'generated by an auxiliary program of Tobunporous'

_symmetry_space_group_name_H-M     'P 1'
_symmetry_Int_Tables_number        1
_symmetry_cell_setting             triclinic

_cell_length_a                    34.2800
_cell_length_b                    34.2800
_cell_length_c                    34.2800
_cell_angle_alpha                 90.0000
_cell_angle_beta                  90.0000
_cell_angle_gamma                 90.0000

loop_
_atom_site_label
_atom_site_fract_x
_atom_site_fract_y
_atom_site_fract_z
_atom_site_occupancy
O1       0.75000    0.75000    0.75000   1.00
Zn1      0.71720    0.78280    0.78280   1.00
Zn1      0.78280    0.71720    0.78280   1.00
Zn1      0.78280    0.78280    0.71720   1.00
Zn1      0.71720    0.71720    0.71720   1.00
O2       0.72650    0.77350    0.83820   1.00
O2       0.72650    0.83820    0.77350   1.00
O2       0.66180    0.77350    0.77350   1.00
O2       0.77350    0.72650    0.83820   1.00
O2       0.83820    0.72650    0.77350   1.00
O2       0.77350    0.66180    0.77350   1.00
O2       0.77350    0.83820    0.72650   1.00
O2       0.83820    0.77350    0.72650   1.00
O2       0.77350    0.77350    0.66180   1.00
O2       0.66180    0.72650    0.72650   1.00
O2       0.72650    0.66180    0.72650   1.00
O2       0.72650    0.72650    0.66180   1.00
C1       0.75000    0.75000    0.85520   1.00
C1       0.75000    0.85520    0.75000   1.00
C1       0.64480    0.75000    0.75000   1.00
C1       0.85520    0.75000    0.75000   1.00
C1       0.75000    0.64480    0.75000   1.00
C1       0.75000    0.75000    0.64480   1.00
O1       0.25000    0.25000    0.75000   1.00
Zn1      0.21720    0.28280    0.78280   1.00
Zn1      0.28280    0.21720    0.78280   1.00
Zn1      0.28280    0.28280    0.71720   1.00
Zn1      0.21720    0.21720    0.71720   1.00
O2       0.22650    0.27350    0.83820   1.00
O2       0.22650    0.33820    0.77350   1.00
O2       0.16180    0.27350    0.77350   1.00
O2       0.27350    0.22650    0.83820   1.00
O2       0.33820    0.22650    0.77350   1.00
O2       0.27350    0.16180    0.77350   1.00
O2       0.27350    0.33820    0.72650   1.00
O2       0.33820    0.27350    0.72650   1.00
O2       0.27350    0.27350    0.66180   1.00
O2       0.16180    0.22650    0.72650   1.00
O2       0.22650    0.16180    0.72650   1.00
O2       0.22650    0.22650    0.66180   1.00
C1       0.25000    0.25000    0.85520   1.00
C1       0.25000    0.35520    0.75000   1.00
C1       0.14480    0.25000    0.75000   1.00
C1       0.35520    0.25000    0.75000   1.00
C1       0.25000    0.14480    0.75000   1.00
C1       0.25000    0.25000    0.64480   1.00
O1       0.25000    0.75000    0.25000   1.00
Zn1      0.21720    0.78280    0.28280   1.00
Zn1      0.28280    0.71720    0.28280   1.00
Zn1      0.28280    0.78280    0.21720   1.00
Zn1      0.21720    0.71720    0.21720   1.00
O2       0.22650    0.77350    0.33820   1.00
O2       0.22650    0.83820    0.27350   1.00
O2       0.16180    0.77350    0.27350   1.00
O2       0.27350    0.72650    0.33820   1.00
O2       0.33820    0.72650    0.27350   1.00
O2       0.27350    0.66180    0.27350   1.00
O2       0.27350    0.83820    0.22650   1.00
O2       0.33820    0.77350    0.22650   1.00
O2       0.27350    0.77350    0.16180   1.00
O2       0.16180    0.72650    0.22650   1.00
O2       0.22650    0.66180    0.22650   1.00
O2       0.22650    0.72650    0.16180   1.00
C1       0.25000    0.75000    0.35520   1.00
C1       0.25000    0.85520    0.25000   1.00
C1       0.14480    0.75000    0.25000   1.00
C1       0.35520    0.75000    0.25000   1.00
C1       0.25000    0.64480    0.25000   1.00
C1       0.25000    0.75000    0.14480   1.00
O1       0.75000    0.25000    0.25000   1.00
Zn1      0.71720    0.28280    0.28280   1.00
Zn1      0.78280    0.21720    0.28280   1.00
Zn1      0.78280    0.28280    0.21720   1.00
Zn1      0.71720    0.21720    0.21720   1.00
O2       0.72650    0.27350    0.33820   1.00
O2       0.72650    0.33820    0.27350   1.00
O2       0.66180    0.27350    0.27350   1.00
O2       0.77350    0.22650    0.33820   1.00
O2       0.83820    0.22650    0.27350   1.00
O2       0.77350    0.16180    0.27350   1.00
O2       0.77350    0.33820    0.22650   1.00
O2       0.83820    0.27350    0.22650   1.00
O2       0.77350    0.27350    0.16180   1.00
O2       0.66180    0.22650    0.22650   1.00
O2       0.72650    0.16180    0.22650   1.00
O2       0.72650    0.22650    0.16180   1.00
C1       0.75000    0.25000    0.35520   1.00
C1       0.75000    0.35520    0.25000   1.00
C1       0.64480    0.25000    0.25000   1.00
C1       0.85520    0.25000    0.25000   1.00
C1       0.75000    0.14480    0.25000   1.00
C1       0.75000    0.25000    0.14480   1.00
O1       0.25000    0.25000    0.25000   1.00
Zn1      0.28280    0.21720    0.21720   1.00
Zn1      0.21720    0.28280    0.21720   1.00
Zn1      0.21720    0.21720    0.28280   1.00
Zn1      0.28280    0.28280    0.28280   1.00
O2       0.27350    0.22650    0.16180   1.00
O2       0.27350    0.16180    0.22650   1.00
O2       0.33820    0.22650    0.22650   1.00
O2       0.22650    0.27350    0.16180   1.00
O2       0.16180    0.27350    0.22650   1.00
O2       0.22650    0.33820    0.22650   1.00
O2       0.22650    0.16180    0.27350   1.00
O2       0.16180    0.22650    0.27350   1.00
O2       0.22650    0.22650    0.33820   1.00
O2       0.33820    0.27350    0.27350   1.00
O2       0.27350    0.33820    0.27350   1.00
O2       0.27350    0.27350    0.33820   1.00
C1       0.25000    0.25000    0.14480   1.00
C1       0.25000    0.14480    0.25000   1.00
C1       0.35520    0.25000    0.25000   1.00
C1       0.14480    0.25000    0.25000   1.00
C1       0.25000    0.35520    0.25000   1.00
C1       0.25000    0.25000    0.35520   1.00
O1       0.75000    0.75000    0.25000   1.00
Zn1      0.78280    0.71720    0.21720   1.00
Zn1      0.71720    0.78280    0.21720   1.00
Zn1      0.71720    0.71720    0.28280   1.00
Zn1      0.78280    0.78280    0.28280   1.00
O2       0.77350    0.72650    0.16180   1.00
O2       0.77350    0.66180    0.22650   1.00
O2       0.83820    0.72650    0.22650   1.00
O2       0.72650    0.77350    0.16180   1.00
O2       0.66180    0.77350    0.22650   1.00
O2       0.72650    0.83820    0.22650   1.00
O2       0.72650    0.66180    0.27350   1.00
O2       0.66180    0.72650    0.27350   1.00
O2       0.72650    0.72650    0.33820   1.00
O2       0.83820    0.77350    0.27350   1.00
O2       0.77350    0.83820    0.27350   1.00
O2       0.77350    0.77350    0.33820   1.00
C1       0.75000    0.75000    0.14480   1.00
C1       0.75000    0.64480    0.25000   1.00
C1       0.85520    0.75000    0.25000   1.00
C1       0.64480    0.75000    0.25000   1.00
C1       0.75000    0.85520    0.25000   1.00
C1       0.75000    0.75000    0.35520   1.00
O1       0.75000    0.25000    0.75000   1.00
Zn1      0.78280    0.21720    0.71720   1.00
Zn1      0.71720    0.28280    0.71720   1.00
Zn1      0.71720    0.21720    0.78280   1.00
Zn1      0.78280    0.28280    0.78280   1.00
O2       0.77350    0.22650    0.66180   1.00
O2       0.77350    0.16180    0.72650   1.00
O2       0.83820    0.22650    0.72650   1.00
O2       0.72650    0.27350    0.66180   1.00
O2       0.66180    0.27350    0.72650   1.00
O2       0.72650    0.33820    0.72650   1.00
O2       0.72650    0.16180    0.77350   1.00
O2       0.66180    0.22650    0.77350   1.00
O2       0.72650    0.22650    0.83820   1.00
O2       0.83820    0.27350    0.77350   1.00
O2       0.77350    0.33820    0.77350   1.00
O2       0.77350    0.27350    0.83820   1.00
C1       0.75000    0.25000    0.64480   1.00
C1       0.75000    0.14480    0.75000   1.00
C1       0.85520    0.25000    0.75000   1.00
C1       0.64480    0.25000    0.75000   1.00
C1       0.75000    0.35520    0.75000   1.00
C1       0.75000    0.25000    0.85520   1.00
O1       0.25000    0.75000    0.75000   1.00
Zn1      0.28280    0.71720    0.71720   1.00
Zn1      0.21720    0.78280    0.71720   1.00
Zn1      0.21720    0.71720    0.78280   1.00
Zn1      0.28280    0.78280    0.78280   1.00
O2       0.27350    0.72650    0.66180   1.00
O2       0.27350    0.66180    0.72650   1.00
O2       0.33820    0.72650    0.72650   1.00
O2       0.22650    0.77350    0.66180   1.00
O2       0.16180    0.77350    0.72650   1.00
O2       0.22650    0.83820    0.72650   1.00
O2       0.22650    0.66180    0.77350   1.00
O2       0.16180    0.72650    0.77350   1.00
O2       0.22650    0.72650    0.83820   1.00
O2       0.33820    0.77350    0.77350   1.00
O2       0.27350    0.83820    0.77350   1.00
O2       0.27350    0.77350    0.83820   1.00
C1       0.25000    0.75000    0.64480   1.00
C1       0.25000    0.64480    0.75000   1.00
C1       0.35520    0.75000    0.75000   1.00
C1       0.14480    0.75000    0.75000   1.00
C1       0.25000    0.85520    0.75000   1.00
C1       0.25000    0.75000    0.85520   1.00
C4       0.75281    0.74884    1.02084   1.00
C4       0.75215    0.74855    0.97912   1.00
C3       0.77276    0.72057    1.04364   1.00
C3       0.76831    0.71806    0.95616   1.00
C3       0.73198    0.77859    1.04123   1.00
C3       0.73451    0.78038    0.95886   1.00
C2       0.75115    0.75034    1.10512   1.00
C2       0.74885    0.74966    0.89488   1.00
C3       0.77178    0.72114    1.08462   1.00
C3       0.76704    0.71876    0.91519   1.00
C3       0.73196    0.77909    1.08258   1.00
C3       0.73206    0.77971    0.91762   1.00
H1       0.78869    0.69881    1.03115   1.00
H1       0.78126    0.69434    0.96852   1.00
C5       0.71144    0.80775    1.02020   1.00
C5       0.71911    0.81255    0.97980   1.00
H1       0.78652    0.69977    1.09955   1.00
H1       0.77950    0.69608    0.90010   1.00
H1       0.71779    0.80123    1.09680   1.00
H1       0.71716    0.80147    0.90368   1.00
O3       0.68623    0.83234    1.03961   1.00
O3       0.70906    0.84679    0.96099   1.00
Si1      0.63994    0.82138    1.04247   1.00
Si1      0.74288    0.87929    0.95279   1.00
C6       0.62657    0.85869    1.07538   1.00
C6       0.61936    0.82925    0.99598   1.00
C6       0.63125    0.77472    1.06253   1.00
C6       0.79126    0.86831    0.96693   1.00
C6       0.74095    0.88552    0.90198   1.00
C6       0.72748    0.92314    0.97477   1.00
C6       0.65362    0.86370    1.11194   1.00
H2       0.63105    0.88496    1.05791   1.00
C6       0.58379    0.86177    1.09147   1.00
H2       0.63919    0.85085    0.98358   1.00
C6       0.61876    0.79453    0.96634   1.00
C6       0.57774    0.84788    0.99336   1.00
H2       0.65004    0.77490    1.08831   1.00
C6       0.58901    0.76599    1.07772   1.00
C6       0.64248    0.73730    1.03849   1.00
C6       0.79903    0.85804    1.01071   1.00
C6       0.81579    0.83866    0.94225   1.00
H2       0.80614    0.89606    0.96212   1.00
H2       0.75253    0.85817    0.89051   1.00
C6       0.69922    0.88959    0.88378   1.00
C6       0.76634    0.91886    0.88393   1.00
H2       0.70700    0.93554    0.95375   1.00
C6       0.70373    0.91911    1.01336   1.00
C6       0.75881    0.95552    0.98244   1.00
H2       0.68403    0.86814    1.10346   1.00
H2       0.65230    0.83809    1.13090   1.00
H2       0.64514    0.88918    1.12917   1.00
H2       0.57604    0.89238    1.09608   1.00
H2       0.56224    0.84937    1.07178   1.00
H2       0.58039    0.84725    1.11964   1.00
H2       0.61323    0.80506    0.93672   1.00
H2       0.64655    0.77921    0.96532   1.00
H2       0.59582    0.77363    0.97352   1.00
H2       0.57651    0.87580    1.00862   1.00
H2       0.56963    0.85395    0.96308   1.00
H2       0.55563    0.82839    1.00550   1.00
H2       0.56726    0.77170    1.05514   1.00
H2       0.58565    0.73564    1.08708   1.00
H2       0.58213    0.78337    1.10332   1.00
H2       0.61901    0.72808    1.01902   1.00
H2       0.66832    0.74101    1.02068   1.00
H2       0.64835    0.71295    1.05828   1.00
H2       0.79297    0.82745    1.01688   1.00
H2       0.82965    0.86313    1.01809   1.00
H2       0.78165    0.87580    1.03048   1.00
H2       0.84641    0.83917    0.95125   1.00
H2       0.80565    0.80878    0.94574   1.00
H2       0.81551    0.84573    0.91122   1.00
H2       0.70058    0.88661    0.85202   1.00
H2       0.67963    0.86676    0.89435   1.00
H2       0.68604    0.91782    0.89035   1.00
H2       0.79646    0.91760    0.89416   1.00
H2       0.76721    0.91621    0.85212   1.00
H2       0.75444    0.94761    0.89085   1.00
H2       0.72073    0.90553    1.03656   1.00
H2       0.69337    0.94739    1.02381   1.00
H2       0.67811    0.90117    1.00834   1.00
H2       0.74487    0.98310    0.99044   1.00
H2       0.77842    0.94736    1.00622   1.00
H2       0.77638    0.96130    0.95657   1.00
C4       0.74884    1.02084    0.75281   1.00
C4       0.74855    0.97912    0.75215   1.00
C3       0.72057    1.04364    0.77276   1.00
C3       0.71806    0.95616    0.76831   1.00
C3       0.77859    1.04123    0.73198   1.00
C3       0.78038    0.95886    0.73451   1.00
C2       0.75034    1.10512    0.75115   1.00
C2       0.74966    0.89488    0.74885   1.00
C3       0.72114    1.08462    0.77178   1.00
C3       0.71876    0.91519    0.76704   1.00
C3       0.77909    1.08258    0.73196   1.00
C3       0.77971    0.91762    0.73206   1.00
H1       0.69881    1.03115    0.78869   1.00
H1       0.69434    0.96852    0.78126   1.00
C5       0.80775    1.02020    0.71144   1.00
C5       0.81255    0.97980    0.71911   1.00
H1       0.69977    1.09955    0.78652   1.00
H1       0.69608    0.90010    0.77950   1.00
H1       0.80123    1.09680    0.71779   1.00
H1       0.80147    0.90368    0.71716   1.00
O3       0.83234    1.03961    0.68623   1.00
O3       0.84679    0.96099    0.70906   1.00
Si1      0.82138    1.04247    0.63994   1.00
Si1      0.87929    0.95279    0.74288   1.00
C6       0.85869    1.07538    0.62657   1.00
C6       0.82925    0.99598    0.61936   1.00
C6       0.77472    1.06253    0.63125   1.00
C6       0.86831    0.96693    0.79126   1.00
C6       0.88552    0.90198    0.74095   1.00
C6       0.92314    0.97477    0.72748   1.00
C6       0.86370    1.11194    0.65362   1.00
H2       0.88496    1.05791    0.63105   1.00
C6       0.86177    1.09147    0.58379   1.00
H2       0.85085    0.98358    0.63919   1.00
C6       0.79453    0.96634    0.61876   1.00
C6       0.84788    0.99336    0.57774   1.00
H2       0.77490    1.08831    0.65004   1.00
C6       0.76599    1.07772    0.58901   1.00
C6       0.73730    1.03849    0.64248   1.00
C6       0.85804    1.01071    0.79903   1.00
C6       0.83866    0.94225    0.81579   1.00
H2       0.89606    0.96212    0.80614   1.00
H2       0.85817    0.89051    0.75253   1.00
C6       0.88959    0.88378    0.69922   1.00
C6       0.91886    0.88393    0.76634   1.00
H2       0.93554    0.95375    0.70700   1.00
C6       0.91911    1.01336    0.70373   1.00
C6       0.95552    0.98244    0.75881   1.00
H2       0.86814    1.10346    0.68403   1.00
H2       0.83809    1.13090    0.65230   1.00
H2       0.88918    1.12917    0.64514   1.00
H2       0.89238    1.09608    0.57604   1.00
H2       0.84937    1.07178    0.56224   1.00
H2       0.84725    1.11964    0.58039   1.00
H2       0.80506    0.93672    0.61323   1.00
H2       0.77921    0.96532    0.64655   1.00
H2       0.77363    0.97352    0.59582   1.00
H2       0.87580    1.00862    0.57651   1.00
H2       0.85395    0.96308    0.56963   1.00
H2       0.82839    1.00550    0.55563   1.00
H2       0.77170    1.05514    0.56726   1.00
H2       0.73564    1.08708    0.58565   1.00
H2       0.78337    1.10332    0.58213   1.00
H2       0.72808    1.01902    0.61901   1.00
H2       0.74101    1.02068    0.66832   1.00
H2       0.71295    1.05828    0.64835   1.00
H2       0.82745    1.01688    0.79297   1.00
H2       0.86313    1.01809    0.82965   1.00
H2       0.87580    1.03048    0.78165   1.00
H2       0.83917    0.95125    0.84641   1.00
H2       0.80878    0.94574    0.80565   1.00
H2       0.84573    0.91122    0.81551   1.00
H2       0.88661    0.85202    0.70058   1.00
H2       0.86676    0.89435    0.67963   1.00
H2       0.91782    0.89035    0.68604   1.00
H2       0.91760    0.89416    0.79646   1.00
H2       0.91621    0.85212    0.76721   1.00
H2       0.94761    0.89085    0.75444   1.00
H2       0.90553    1.03656    0.72073   1.00
H2       0.94739    1.02381    0.69337   1.00
H2       0.90117    1.00834    0.67811   1.00
H2       0.98310    0.99044    0.74487   1.00
H2       0.94736    1.00622    0.77842   1.00
H2       0.96130    0.95657    0.77638   1.00
C4       0.47916    0.75281    0.75116   1.00
C4       0.52088    0.75215    0.75145   1.00
C3       0.45636    0.77276    0.77943   1.00
C3       0.54384    0.76831    0.78194   1.00
C3       0.45877    0.73198    0.72141   1.00
C3       0.54114    0.73451    0.71962   1.00
C2       0.39488    0.75115    0.74966   1.00
C2       0.60512    0.74885    0.75034   1.00
C3       0.41538    0.77178    0.77886   1.00
C3       0.58481    0.76704    0.78124   1.00
C3       0.41742    0.73196    0.72091   1.00
C3       0.58238    0.73206    0.72029   1.00
H1       0.46885    0.78869    0.80119   1.00
H1       0.53148    0.78126    0.80566   1.00
C5       0.47980    0.71144    0.69225   1.00
C5       0.52020    0.71911    0.68745   1.00
H1       0.40045    0.78652    0.80023   1.00
H1       0.59990    0.77950    0.80392   1.00
H1       0.40320    0.71779    0.69877   1.00
H1       0.59632    0.71716    0.69853   1.00
O3       0.46039    0.68623    0.66766   1.00
O3       0.53901    0.70906    0.65321   1.00
Si1      0.45753    0.63994    0.67862   1.00
Si1      0.54721    0.74288    0.62071   1.00
C6       0.42462    0.62657    0.64131   1.00
C6       0.50402    0.61936    0.67075   1.00
C6       0.43747    0.63125    0.72528   1.00
C6       0.53307    0.79126    0.63169   1.00
C6       0.59802    0.74095    0.61448   1.00
C6       0.52523    0.72748    0.57686   1.00
C6       0.38806    0.65362    0.63630   1.00
H2       0.44209    0.63105    0.61504   1.00
C6       0.40853    0.58379    0.63823   1.00
H2       0.51642    0.63919    0.64915   1.00
C6       0.53366    0.61876    0.70547   1.00
C6       0.50664    0.57774    0.65212   1.00
H2       0.41169    0.65004    0.72510   1.00
C6       0.42228    0.58901    0.73401   1.00
C6       0.46151    0.64248    0.76270   1.00
C6       0.48929    0.79903    0.64196   1.00
C6       0.55775    0.81579    0.66134   1.00
H2       0.53788    0.80614    0.60394   1.00
H2       0.60949    0.75253    0.64183   1.00
C6       0.61622    0.69922    0.61041   1.00
C6       0.61607    0.76634    0.58114   1.00
H2       0.54625    0.70700    0.56446   1.00
C6       0.48664    0.70373    0.58089   1.00
C6       0.51756    0.75881    0.54448   1.00
H2       0.39654    0.68403    0.63186   1.00
H2       0.36910    0.65230    0.66191   1.00
H2       0.37083    0.64514    0.61082   1.00
H2       0.40392    0.57604    0.60762   1.00
H2       0.42822    0.56224    0.65063   1.00
H2       0.38036    0.58039    0.65275   1.00
H2       0.56328    0.61323    0.69494   1.00
H2       0.53468    0.64655    0.72079   1.00
H2       0.52648    0.59582    0.72637   1.00
H2       0.49138    0.57651    0.62420   1.00
H2       0.53692    0.56963    0.64605   1.00
H2       0.49450    0.55563    0.67161   1.00
H2       0.44486    0.56726    0.72830   1.00
H2       0.41292    0.58565    0.76436   1.00
H2       0.39668    0.58213    0.71663   1.00
H2       0.48098    0.61901    0.77192   1.00
H2       0.47932    0.66832    0.75899   1.00
H2       0.44172    0.64835    0.78705   1.00
H2       0.48312    0.79297    0.67255   1.00
H2       0.48191    0.82965    0.63687   1.00
H2       0.46952    0.78165    0.62420   1.00
H2       0.54875    0.84641    0.66083   1.00
H2       0.55426    0.80565    0.69122   1.00
H2       0.58878    0.81551    0.65427   1.00
H2       0.64798    0.70058    0.61339   1.00
H2       0.60565    0.67963    0.63324   1.00
H2       0.60965    0.68604    0.58218   1.00
H2       0.60584    0.79646    0.58240   1.00
H2       0.64788    0.76721    0.58379   1.00
H2       0.60915    0.75444    0.55239   1.00
H2       0.46344    0.72073    0.59447   1.00
H2       0.47619    0.69337    0.55261   1.00
H2       0.49166    0.67811    0.59883   1.00
H2       0.50956    0.74487    0.51690   1.00
H2       0.49378    0.77842    0.55264   1.00
H2       0.54343    0.77638    0.53870   1.00
C4       1.02084    0.75281    0.74884   1.00
C4       0.97912    0.75215    0.74855   1.00
C3       1.04364    0.77276    0.72057   1.00
C3       0.95616    0.76831    0.71806   1.00
C3       1.04123    0.73198    0.77859   1.00
C3       0.95886    0.73451    0.78038   1.00
C2       1.10512    0.75115    0.75034   1.00
C2       0.89488    0.74885    0.74966   1.00
C3       1.08462    0.77178    0.72114   1.00
C3       0.91519    0.76704    0.71876   1.00
C3       1.08258    0.73196    0.77909   1.00
C3       0.91762    0.73206    0.77971   1.00
H1       1.03115    0.78869    0.69881   1.00
H1       0.96852    0.78126    0.69434   1.00
C5       1.02020    0.71144    0.80775   1.00
C5       0.97980    0.71911    0.81255   1.00
H1       1.09955    0.78652    0.69977   1.00
H1       0.90010    0.77950    0.69608   1.00
H1       1.09680    0.71779    0.80123   1.00
H1       0.90368    0.71716    0.80147   1.00
O3       1.03961    0.68623    0.83234   1.00
O3       0.96099    0.70906    0.84679   1.00
Si1      1.04247    0.63994    0.82138   1.00
Si1      0.95279    0.74288    0.87929   1.00
C6       1.07538    0.62657    0.85869   1.00
C6       0.99598    0.61936    0.82925   1.00
C6       1.06253    0.63125    0.77472   1.00
C6       0.96693    0.79126    0.86831   1.00
C6       0.90198    0.74095    0.88552   1.00
C6       0.97477    0.72748    0.92314   1.00
C6       1.11194    0.65362    0.86370   1.00
H2       1.05791    0.63105    0.88496   1.00
C6       1.09147    0.58379    0.86177   1.00
H2       0.98358    0.63919    0.85085   1.00
C6       0.96634    0.61876    0.79453   1.00
C6       0.99336    0.57774    0.84788   1.00
H2       1.08831    0.65004    0.77490   1.00
C6       1.07772    0.58901    0.76599   1.00
C6       1.03849    0.64248    0.73730   1.00
C6       1.01071    0.79903    0.85804   1.00
C6       0.94225    0.81579    0.83866   1.00
H2       0.96212    0.80614    0.89606   1.00
H2       0.89051    0.75253    0.85817   1.00
C6       0.88378    0.69922    0.88959   1.00
C6       0.88393    0.76634    0.91886   1.00
H2       0.95375    0.70700    0.93554   1.00
C6       1.01336    0.70373    0.91911   1.00
C6       0.98244    0.75881    0.95552   1.00
H2       1.10346    0.68403    0.86814   1.00
H2       1.13090    0.65230    0.83809   1.00
H2       1.12917    0.64514    0.88918   1.00
H2       1.09608    0.57604    0.89238   1.00
H2       1.07178    0.56224    0.84937   1.00
H2       1.11964    0.58039    0.84725   1.00
H2       0.93672    0.61323    0.80506   1.00
H2       0.96532    0.64655    0.77921   1.00
H2       0.97352    0.59582    0.77363   1.00
H2       1.00862    0.57651    0.87580   1.00
H2       0.96308    0.56963    0.85395   1.00
H2       1.00550    0.55563    0.82839   1.00
H2       1.05514    0.56726    0.77170   1.00
H2       1.08708    0.58565    0.73564   1.00
H2       1.10332    0.58213    0.78337   1.00
H2       1.01902    0.61901    0.72808   1.00
H2       1.02068    0.66832    0.74101   1.00
H2       1.05828    0.64835    0.71295   1.00
H2       1.01688    0.79297    0.82745   1.00
H2       1.01809    0.82965    0.86313   1.00
H2       1.03048    0.78165    0.87580   1.00
H2       0.95125    0.84641    0.83917   1.00
H2       0.94574    0.80565    0.80878   1.00
H2       0.91122    0.81551    0.84573   1.00
H2       0.85202    0.70058    0.88661   1.00
H2       0.89435    0.67963    0.86676   1.00
H2       0.89035    0.68604    0.91782   1.00
H2       0.89416    0.79646    0.91760   1.00
H2       0.85212    0.76721    0.91621   1.00
H2       0.89085    0.75444    0.94761   1.00
H2       1.03656    0.72073    0.90553   1.00
H2       1.02381    0.69337    0.94739   1.00
H2       1.00834    0.67811    0.90117   1.00
H2       0.99044    0.74487    0.98310   1.00
H2       1.00622    0.77842    0.94736   1.00
H2       0.95657    0.77638    0.96130   1.00
C4       0.75116    0.47916    0.75281   1.00
C4       0.75145    0.52088    0.75215   1.00
C3       0.77943    0.45636    0.77276   1.00
C3       0.78194    0.54384    0.76831   1.00
C3       0.72141    0.45877    0.73198   1.00
C3       0.71962    0.54114    0.73451   1.00
C2       0.74966    0.39488    0.75115   1.00
C2       0.75034    0.60512    0.74885   1.00
C3       0.77886    0.41538    0.77178   1.00
C3       0.78124    0.58481    0.76704   1.00
C3       0.72091    0.41742    0.73196   1.00
C3       0.72029    0.58238    0.73206   1.00
H1       0.80119    0.46885    0.78869   1.00
H1       0.80566    0.53148    0.78126   1.00
C5       0.69225    0.47980    0.71144   1.00
C5       0.68745    0.52020    0.71911   1.00
H1       0.80023    0.40045    0.78652   1.00
H1       0.80392    0.59990    0.77950   1.00
H1       0.69877    0.40320    0.71779   1.00
H1       0.69853    0.59632    0.71716   1.00
O3       0.66766    0.46039    0.68623   1.00
O3       0.65321    0.53901    0.70906   1.00
Si1      0.67862    0.45753    0.63994   1.00
Si1      0.62071    0.54721    0.74288   1.00
C6       0.64131    0.42462    0.62657   1.00
C6       0.67075    0.50402    0.61936   1.00
C6       0.72528    0.43747    0.63125   1.00
C6       0.63169    0.53307    0.79126   1.00
C6       0.61448    0.59802    0.74095   1.00
C6       0.57686    0.52523    0.72748   1.00
C6       0.63630    0.38806    0.65362   1.00
H2       0.61504    0.44209    0.63105   1.00
C6       0.63823    0.40853    0.58379   1.00
H2       0.64915    0.51642    0.63919   1.00
C6       0.70547    0.53366    0.61876   1.00
C6       0.65212    0.50664    0.57774   1.00
H2       0.72510    0.41169    0.65004   1.00
C6       0.73401    0.42228    0.58901   1.00
C6       0.76270    0.46151    0.64248   1.00
C6       0.64196    0.48929    0.79903   1.00
C6       0.66134    0.55775    0.81579   1.00
H2       0.60394    0.53788    0.80614   1.00
H2       0.64183    0.60949    0.75253   1.00
C6       0.61041    0.61622    0.69922   1.00
C6       0.58114    0.61607    0.76634   1.00
H2       0.56446    0.54625    0.70700   1.00
C6       0.58089    0.48664    0.70373   1.00
C6       0.54448    0.51756    0.75881   1.00
H2       0.63186    0.39654    0.68403   1.00
H2       0.66191    0.36910    0.65230   1.00
H2       0.61082    0.37083    0.64514   1.00
H2       0.60762    0.40392    0.57604   1.00
H2       0.65063    0.42822    0.56224   1.00
H2       0.65275    0.38036    0.58039   1.00
H2       0.69494    0.56328    0.61323   1.00
H2       0.72079    0.53468    0.64655   1.00
H2       0.72637    0.52648    0.59582   1.00
H2       0.62420    0.49138    0.57651   1.00
H2       0.64605    0.53692    0.56963   1.00
H2       0.67161    0.49450    0.55563   1.00
H2       0.72830    0.44486    0.56726   1.00
H2       0.76436    0.41292    0.58565   1.00
H2       0.71663    0.39668    0.58213   1.00
H2       0.77192    0.48098    0.61901   1.00
H2       0.75899    0.47932    0.66832   1.00
H2       0.78705    0.44172    0.64835   1.00
H2       0.67255    0.48312    0.79297   1.00
H2       0.63687    0.48191    0.82965   1.00
H2       0.62420    0.46952    0.78165   1.00
H2       0.66083    0.54875    0.84641   1.00
H2       0.69122    0.55426    0.80565   1.00
H2       0.65427    0.58878    0.81551   1.00
H2       0.61339    0.64798    0.70058   1.00
H2       0.63324    0.60565    0.67963   1.00
H2       0.58218    0.60965    0.68604   1.00
H2       0.58240    0.60584    0.79646   1.00
H2       0.58379    0.64788    0.76721   1.00
H2       0.55239    0.60915    0.75444   1.00
H2       0.59447    0.46344    0.72073   1.00
H2       0.55261    0.47619    0.69337   1.00
H2       0.59883    0.49166    0.67811   1.00
H2       0.51690    0.50956    0.74487   1.00
H2       0.55264    0.49378    0.77842   1.00
H2       0.53870    0.54343    0.77638   1.00
C4       0.75281    0.75116    0.47916   1.00
C4       0.75215    0.75145    0.52088   1.00
C3       0.77276    0.77943    0.45636   1.00
C3       0.76831    0.78194    0.54384   1.00
C3       0.73198    0.72141    0.45877   1.00
C3       0.73451    0.71962    0.54114   1.00
C2       0.75115    0.74966    0.39488   1.00
C2       0.74885    0.75034    0.60512   1.00
C3       0.77178    0.77886    0.41538   1.00
C3       0.76704    0.78124    0.58481   1.00
C3       0.73196    0.72091    0.41742   1.00
C3       0.73206    0.72029    0.58238   1.00
H1       0.78869    0.80119    0.46885   1.00
H1       0.78126    0.80566    0.53148   1.00
C5       0.71144    0.69225    0.47980   1.00
C5       0.71911    0.68745    0.52020   1.00
H1       0.78652    0.80023    0.40045   1.00
H1       0.77950    0.80392    0.59990   1.00
H1       0.71779    0.69877    0.40320   1.00
H1       0.71716    0.69853    0.59632   1.00
O3       0.68623    0.66766    0.46039   1.00
O3       0.70906    0.65321    0.53901   1.00
Si1      0.63994    0.67862    0.45753   1.00
Si1      0.74288    0.62071    0.54721   1.00
C6       0.62657    0.64131    0.42462   1.00
C6       0.61936    0.67075    0.50402   1.00
C6       0.63125    0.72528    0.43747   1.00
C6       0.79126    0.63169    0.53307   1.00
C6       0.74095    0.61448    0.59802   1.00
C6       0.72748    0.57686    0.52523   1.00
C6       0.65362    0.63630    0.38806   1.00
H2       0.63105    0.61504    0.44209   1.00
C6       0.58379    0.63823    0.40853   1.00
H2       0.63919    0.64915    0.51642   1.00
C6       0.61876    0.70547    0.53366   1.00
C6       0.57774    0.65212    0.50664   1.00
H2       0.65004    0.72510    0.41169   1.00
C6       0.58901    0.73401    0.42228   1.00
C6       0.64248    0.76270    0.46151   1.00
C6       0.79903    0.64196    0.48929   1.00
C6       0.81579    0.66134    0.55775   1.00
H2       0.80614    0.60394    0.53788   1.00
H2       0.75253    0.64183    0.60949   1.00
C6       0.69922    0.61041    0.61622   1.00
C6       0.76634    0.58114    0.61607   1.00
H2       0.70700    0.56446    0.54625   1.00
C6       0.70373    0.58089    0.48664   1.00
C6       0.75881    0.54448    0.51756   1.00
H2       0.68403    0.63186    0.39654   1.00
H2       0.65230    0.66191    0.36910   1.00
H2       0.64514    0.61082    0.37083   1.00
H2       0.57604    0.60762    0.40392   1.00
H2       0.56224    0.65063    0.42822   1.00
H2       0.58039    0.65275    0.38036   1.00
H2       0.61323    0.69494    0.56328   1.00
H2       0.64655    0.72079    0.53468   1.00
H2       0.59582    0.72637    0.52648   1.00
H2       0.57651    0.62420    0.49138   1.00
H2       0.56963    0.64605    0.53692   1.00
H2       0.55563    0.67161    0.49450   1.00
H2       0.56726    0.72830    0.44486   1.00
H2       0.58565    0.76436    0.41292   1.00
H2       0.58213    0.71663    0.39668   1.00
H2       0.61901    0.77192    0.48098   1.00
H2       0.66832    0.75899    0.47932   1.00
H2       0.64835    0.78705    0.44172   1.00
H2       0.79297    0.67255    0.48312   1.00
H2       0.82965    0.63687    0.48191   1.00
H2       0.78165    0.62420    0.46952   1.00
H2       0.84641    0.66083    0.54875   1.00
H2       0.80565    0.69122    0.55426   1.00
H2       0.81551    0.65427    0.58878   1.00
H2       0.70058    0.61339    0.64798   1.00
H2       0.67963    0.63324    0.60565   1.00
H2       0.68604    0.58218    0.60965   1.00
H2       0.79646    0.58240    0.60584   1.00
H2       0.76721    0.58379    0.64788   1.00
H2       0.75444    0.55239    0.60915   1.00
H2       0.72073    0.59447    0.46344   1.00
H2       0.69337    0.55261    0.47619   1.00
H2       0.67811    0.59883    0.49166   1.00
H2       0.74487    0.51690    0.50956   1.00
H2       0.77842    0.55264    0.49378   1.00
H2       0.77638    0.53870    0.54343   1.00
C4       0.25281    0.24884    1.02084   1.00
C4       0.25215    0.24855    0.97912   1.00
C3       0.27276    0.22057    1.04364   1.00
C3       0.26831    0.21806    0.95616   1.00
C3       0.23198    0.27859    1.04123   1.00
C3       0.23451    0.28038    0.95886   1.00
C2       0.25115    0.25034    1.10512   1.00
C2       0.24885    0.24966    0.89488   1.00
C3       0.27178    0.22114    1.08462   1.00
C3       0.26704    0.21876    0.91519   1.00
C3       0.23196    0.27909    1.08258   1.00
C3       0.23206    0.27971    0.91762   1.00
H1       0.28869    0.19881    1.03115   1.00
H1       0.28126    0.19434    0.96852   1.00
C5       0.21144    0.30775    1.02020   1.00
C5       0.21911    0.31255    0.97980   1.00
H1       0.28652    0.19977    1.09955   1.00
H1       0.27950    0.19608    0.90010   1.00
H1       0.21779    0.30123    1.09680   1.00
H1       0.21716    0.30147    0.90368   1.00
O3       0.18623    0.33234    1.03961   1.00
O3       0.20906    0.34679    0.96099   1.00
Si1      0.13994    0.32138    1.04247   1.00
Si1      0.24288    0.37929    0.95279   1.00
C6       0.12657    0.35869    1.07538   1.00
C6       0.11936    0.32925    0.99598   1.00
C6       0.13125    0.27472    1.06253   1.00
C6       0.29126    0.36831    0.96693   1.00
C6       0.24095    0.38552    0.90198   1.00
C6       0.22748    0.42314    0.97477   1.00
C6       0.15362    0.36370    1.11194   1.00
H2       0.13105    0.38496    1.05791   1.00
C6       0.08379    0.36177    1.09147   1.00
H2       0.13919    0.35085    0.98358   1.00
C6       0.11876    0.29453    0.96634   1.00
C6       0.07774    0.34788    0.99336   1.00
H2       0.15004    0.27490    1.08831   1.00
C6       0.08901    0.26599    1.07772   1.00
C6       0.14248    0.23730    1.03849   1.00
C6       0.29903    0.35804    1.01071   1.00
C6       0.31579    0.33866    0.94225   1.00
H2       0.30614    0.39606    0.96212   1.00
H2       0.25253    0.35817    0.89051   1.00
C6       0.19922    0.38959    0.88378   1.00
C6       0.26634    0.41886    0.88393   1.00
H2       0.20700    0.43554    0.95375   1.00
C6       0.20373    0.41911    1.01336   1.00
C6       0.25881    0.45552    0.98244   1.00
H2       0.18403    0.36814    1.10346   1.00
H2       0.15230    0.33809    1.13090   1.00
H2       0.14514    0.38918    1.12917   1.00
H2       0.07604    0.39238    1.09608   1.00
H2       0.06224    0.34937    1.07178   1.00
H2       0.08039    0.34725    1.11964   1.00
H2       0.11323    0.30506    0.93672   1.00
H2       0.14655    0.27921    0.96532   1.00
H2       0.09582    0.27363    0.97352   1.00
H2       0.07651    0.37580    1.00862   1.00
H2       0.06963    0.35395    0.96308   1.00
H2       0.05563    0.32839    1.00550   1.00
H2       0.06726    0.27170    1.05514   1.00
H2       0.08565    0.23564    1.08708   1.00
H2       0.08213    0.28337    1.10332   1.00
H2       0.11901    0.22808    1.01902   1.00
H2       0.16832    0.24101    1.02068   1.00
H2       0.14835    0.21295    1.05828   1.00
H2       0.29297    0.32745    1.01688   1.00
H2       0.32965    0.36313    1.01809   1.00
H2       0.28165    0.37580    1.03048   1.00
H2       0.34641    0.33917    0.95125   1.00
H2       0.30565    0.30878    0.94574   1.00
H2       0.31551    0.34573    0.91122   1.00
H2       0.20058    0.38661    0.85202   1.00
H2       0.17963    0.36676    0.89435   1.00
H2       0.18604    0.41782    0.89035   1.00
H2       0.29646    0.41760    0.89416   1.00
H2       0.26721    0.41621    0.85212   1.00
H2       0.25444    0.44761    0.89085   1.00
H2       0.22073    0.40553    1.03656   1.00
H2       0.19337    0.44739    1.02381   1.00
H2       0.17811    0.40117    1.00834   1.00
H2       0.24487    0.48310    0.99044   1.00
H2       0.27842    0.44736    1.00622   1.00
H2       0.27638    0.46130    0.95657   1.00
C4       0.24884    0.52084    0.75281   1.00
C4       0.24855    0.47912    0.75215   1.00
C3       0.22057    0.54364    0.77276   1.00
C3       0.21806    0.45616    0.76831   1.00
C3       0.27859    0.54123    0.73198   1.00
C3       0.28038    0.45886    0.73451   1.00
C2       0.25034    0.60512    0.75115   1.00
C2       0.24966    0.39488    0.74885   1.00
C3       0.22114    0.58462    0.77178   1.00
C3       0.21876    0.41519    0.76704   1.00
C3       0.27909    0.58258    0.73196   1.00
C3       0.27971    0.41762    0.73206   1.00
H1       0.19881    0.53115    0.78869   1.00
H1       0.19434    0.46852    0.78126   1.00
C5       0.30775    0.52020    0.71144   1.00
C5       0.31255    0.47980    0.71911   1.00
H1       0.19977    0.59955    0.78652   1.00
H1       0.19608    0.40010    0.77950   1.00
H1       0.30123    0.59680    0.71779   1.00
H1       0.30147    0.40368    0.71716   1.00
O3       0.33234    0.53961    0.68623   1.00
O3       0.34679    0.46099    0.70906   1.00
Si1      0.32138    0.54247    0.63994   1.00
Si1      0.37929    0.45279    0.74288   1.00
C6       0.35869    0.57538    0.62657   1.00
C6       0.32925    0.49598    0.61936   1.00
C6       0.27472    0.56253    0.63125   1.00
C6       0.36831    0.46693    0.79126   1.00
C6       0.38552    0.40198    0.74095   1.00
C6       0.42314    0.47477    0.72748   1.00
C6       0.36370    0.61194    0.65362   1.00
H2       0.38496    0.55791    0.63105   1.00
C6       0.36177    0.59147    0.58379   1.00
H2       0.35085    0.48358    0.63919   1.00
C6       0.29453    0.46634    0.61876   1.00
C6       0.34788    0.49336    0.57774   1.00
H2       0.27490    0.58831    0.65004   1.00
C6       0.26599    0.57772    0.58901   1.00
C6       0.23730    0.53849    0.64248   1.00
C6       0.35804    0.51071    0.79903   1.00
C6       0.33866    0.44225    0.81579   1.00
H2       0.39606    0.46212    0.80614   1.00
H2       0.35817    0.39051    0.75253   1.00
C6       0.38959    0.38378    0.69922   1.00
C6       0.41886    0.38393    0.76634   1.00
H2       0.43554    0.45375    0.70700   1.00
C6       0.41911    0.51336    0.70373   1.00
C6       0.45552    0.48244    0.75881   1.00
H2       0.36814    0.60346    0.68403   1.00
H2       0.33809    0.63090    0.65230   1.00
H2       0.38918    0.62917    0.64514   1.00
H2       0.39238    0.59608    0.57604   1.00
H2       0.34937    0.57178    0.56224   1.00
H2       0.34725    0.61964    0.58039   1.00
H2       0.30506    0.43672    0.61323   1.00
H2       0.27921    0.46532    0.64655   1.00
H2       0.27363    0.47352    0.59582   1.00
H2       0.37580    0.50862    0.57651   1.00
H2       0.35395    0.46308    0.56963   1.00
H2       0.32839    0.50550    0.55563   1.00
H2       0.27170    0.55514    0.56726   1.00
H2       0.23564    0.58708    0.58565   1.00
H2       0.28337    0.60332    0.58213   1.00
H2       0.22808    0.51902    0.61901   1.00
H2       0.24101    0.52068    0.66832   1.00
H2       0.21295    0.55828    0.64835   1.00
H2       0.32745    0.51688    0.79297   1.00
H2       0.36313    0.51809    0.82965   1.00
H2       0.37580    0.53048    0.78165   1.00
H2       0.33917    0.45125    0.84641   1.00
H2       0.30878    0.44574    0.80565   1.00
H2       0.34573    0.41122    0.81551   1.00
H2       0.38661    0.35202    0.70058   1.00
H2       0.36676    0.39435    0.67963   1.00
H2       0.41782    0.39035    0.68604   1.00
H2       0.41760    0.39416    0.79646   1.00
H2       0.41621    0.35212    0.76721   1.00
H2       0.44761    0.39085    0.75444   1.00
H2       0.40553    0.53656    0.72073   1.00
H2       0.44739    0.52381    0.69337   1.00
H2       0.40117    0.50834    0.67811   1.00
H2       0.48310    0.49044    0.74487   1.00
H2       0.44736    0.50622    0.77842   1.00
H2       0.46130    0.45657    0.77638   1.00
C4       -0.02084   0.25281    0.75116   1.00
C4       0.02088    0.25215    0.75145   1.00
C3       -0.04364   0.27276    0.77943   1.00
C3       0.04384    0.26831    0.78194   1.00
C3       -0.04123   0.23198    0.72141   1.00
C3       0.04114    0.23451    0.71962   1.00
C2       -0.10512   0.25115    0.74966   1.00
C2       0.10512    0.24885    0.75034   1.00
C3       -0.08462   0.27178    0.77886   1.00
C3       0.08481    0.26704    0.78124   1.00
C3       -0.08258   0.23196    0.72091   1.00
C3       0.08238    0.23206    0.72029   1.00
H1       -0.03115   0.28869    0.80119   1.00
H1       0.03148    0.28126    0.80566   1.00
C5       -0.02020   0.21144    0.69225   1.00
C5       0.02020    0.21911    0.68745   1.00
H1       -0.09955   0.28652    0.80023   1.00
H1       0.09990    0.27950    0.80392   1.00
H1       -0.09680   0.21779    0.69877   1.00
H1       0.09632    0.21716    0.69853   1.00
O3       -0.03961   0.18623    0.66766   1.00
O3       0.03901    0.20906    0.65321   1.00
Si1      -0.04247   0.13994    0.67862   1.00
Si1      0.04721    0.24288    0.62071   1.00
C6       -0.07538   0.12657    0.64131   1.00
C6       0.00402    0.11936    0.67075   1.00
C6       -0.06253   0.13125    0.72528   1.00
C6       0.03307    0.29126    0.63169   1.00
C6       0.09802    0.24095    0.61448   1.00
C6       0.02523    0.22748    0.57686   1.00
C6       -0.11194   0.15362    0.63630   1.00
H2       -0.05791   0.13105    0.61504   1.00
C6       -0.09147   0.08379    0.63823   1.00
H2       0.01642    0.13919    0.64915   1.00
C6       0.03366    0.11876    0.70547   1.00
C6       0.00664    0.07774    0.65212   1.00
H2       -0.08831   0.15004    0.72510   1.00
C6       -0.07772   0.08901    0.73401   1.00
C6       -0.03849   0.14248    0.76270   1.00
C6       -0.01071   0.29903    0.64196   1.00
C6       0.05775    0.31579    0.66134   1.00
H2       0.03788    0.30614    0.60394   1.00
H2       0.10949    0.25253    0.64183   1.00
C6       0.11622    0.19922    0.61041   1.00
C6       0.11607    0.26634    0.58114   1.00
H2       0.04625    0.20700    0.56446   1.00
C6       -0.01336   0.20373    0.58089   1.00
C6       0.01756    0.25881    0.54448   1.00
H2       -0.10346   0.18403    0.63186   1.00
H2       -0.13090   0.15230    0.66191   1.00
H2       -0.12917   0.14514    0.61082   1.00
H2       -0.09608   0.07604    0.60762   1.00
H2       -0.07178   0.06224    0.65063   1.00
H2       -0.11964   0.08039    0.65275   1.00
H2       0.06328    0.11323    0.69494   1.00
H2       0.03468    0.14655    0.72079   1.00
H2       0.02648    0.09582    0.72637   1.00
H2       -0.00862   0.07651    0.62420   1.00
H2       0.03692    0.06963    0.64605   1.00
H2       -0.00550   0.05563    0.67161   1.00
H2       -0.05514   0.06726    0.72830   1.00
H2       -0.08708   0.08565    0.76436   1.00
H2       -0.10332   0.08213    0.71663   1.00
H2       -0.01902   0.11901    0.77192   1.00
H2       -0.02068   0.16832    0.75899   1.00
H2       -0.05828   0.14835    0.78705   1.00
H2       -0.01688   0.29297    0.67255   1.00
H2       -0.01809   0.32965    0.63687   1.00
H2       -0.03048   0.28165    0.62420   1.00
H2       0.04875    0.34641    0.66083   1.00
H2       0.05426    0.30565    0.69122   1.00
H2       0.08878    0.31551    0.65427   1.00
H2       0.14798    0.20058    0.61339   1.00
H2       0.10565    0.17963    0.63324   1.00
H2       0.10965    0.18604    0.58218   1.00
H2       0.10584    0.29646    0.58240   1.00
H2       0.14788    0.26721    0.58379   1.00
H2       0.10915    0.25444    0.55239   1.00
H2       -0.03656   0.22073    0.59447   1.00
H2       -0.02381   0.19337    0.55261   1.00
H2       -0.00834   0.17811    0.59883   1.00
H2       0.00956    0.24487    0.51690   1.00
H2       -0.00622   0.27842    0.55264   1.00
H2       0.04343    0.27638    0.53870   1.00
C4       0.52084    0.25281    0.74884   1.00
C4       0.47912    0.25215    0.74855   1.00
C3       0.54364    0.27276    0.72057   1.00
C3       0.45616    0.26831    0.71806   1.00
C3       0.54123    0.23198    0.77859   1.00
C3       0.45886    0.23451    0.78038   1.00
C2       0.60512    0.25115    0.75034   1.00
C2       0.39488    0.24885    0.74966   1.00
C3       0.58462    0.27178    0.72114   1.00
C3       0.41519    0.26704    0.71876   1.00
C3       0.58258    0.23196    0.77909   1.00
C3       0.41762    0.23206    0.77971   1.00
H1       0.53115    0.28869    0.69881   1.00
H1       0.46852    0.28126    0.69434   1.00
C5       0.52020    0.21144    0.80775   1.00
C5       0.47980    0.21911    0.81255   1.00
H1       0.59955    0.28652    0.69977   1.00
H1       0.40010    0.27950    0.69608   1.00
H1       0.59680    0.21779    0.80123   1.00
H1       0.40368    0.21716    0.80147   1.00
O3       0.53961    0.18623    0.83234   1.00
O3       0.46099    0.20906    0.84679   1.00
Si1      0.54247    0.13994    0.82138   1.00
Si1      0.45279    0.24288    0.87929   1.00
C6       0.57538    0.12657    0.85869   1.00
C6       0.49598    0.11936    0.82925   1.00
C6       0.56253    0.13125    0.77472   1.00
C6       0.46693    0.29126    0.86831   1.00
C6       0.40198    0.24095    0.88552   1.00
C6       0.47477    0.22748    0.92314   1.00
C6       0.61194    0.15362    0.86370   1.00
H2       0.55791    0.13105    0.88496   1.00
C6       0.59147    0.08379    0.86177   1.00
H2       0.48358    0.13919    0.85085   1.00
C6       0.46634    0.11876    0.79453   1.00
C6       0.49336    0.07774    0.84788   1.00
H2       0.58831    0.15004    0.77490   1.00
C6       0.57772    0.08901    0.76599   1.00
C6       0.53849    0.14248    0.73730   1.00
C6       0.51071    0.29903    0.85804   1.00
C6       0.44225    0.31579    0.83866   1.00
H2       0.46212    0.30614    0.89606   1.00
H2       0.39051    0.25253    0.85817   1.00
C6       0.38378    0.19922    0.88959   1.00
C6       0.38393    0.26634    0.91886   1.00
H2       0.45375    0.20700    0.93554   1.00
C6       0.51336    0.20373    0.91911   1.00
C6       0.48244    0.25881    0.95552   1.00
H2       0.60346    0.18403    0.86814   1.00
H2       0.63090    0.15230    0.83809   1.00
H2       0.62917    0.14514    0.88918   1.00
H2       0.59608    0.07604    0.89238   1.00
H2       0.57178    0.06224    0.84937   1.00
H2       0.61964    0.08039    0.84725   1.00
H2       0.43672    0.11323    0.80506   1.00
H2       0.46532    0.14655    0.77921   1.00
H2       0.47352    0.09582    0.77363   1.00
H2       0.50862    0.07651    0.87580   1.00
H2       0.46308    0.06963    0.85395   1.00
H2       0.50550    0.05563    0.82839   1.00
H2       0.55514    0.06726    0.77170   1.00
H2       0.58708    0.08565    0.73564   1.00
H2       0.60332    0.08213    0.78337   1.00
H2       0.51902    0.11901    0.72808   1.00
H2       0.52068    0.16832    0.74101   1.00
H2       0.55828    0.14835    0.71295   1.00
H2       0.51688    0.29297    0.82745   1.00
H2       0.51809    0.32965    0.86313   1.00
H2       0.53048    0.28165    0.87580   1.00
H2       0.45125    0.34641    0.83917   1.00
H2       0.44574    0.30565    0.80878   1.00
H2       0.41122    0.31551    0.84573   1.00
H2       0.35202    0.20058    0.88661   1.00
H2       0.39435    0.17963    0.86676   1.00
H2       0.39035    0.18604    0.91782   1.00
H2       0.39416    0.29646    0.91760   1.00
H2       0.35212    0.26721    0.91621   1.00
H2       0.39085    0.25444    0.94761   1.00
H2       0.53656    0.22073    0.90553   1.00
H2       0.52381    0.19337    0.94739   1.00
H2       0.50834    0.17811    0.90117   1.00
H2       0.49044    0.24487    0.98310   1.00
H2       0.50622    0.27842    0.94736   1.00
H2       0.45657    0.27638    0.96130   1.00
C4       0.25116    -0.02084   0.75281   1.00
C4       0.25145    0.02088    0.75215   1.00
C3       0.27943    -0.04364   0.77276   1.00
C3       0.28194    0.04384    0.76831   1.00
C3       0.22141    -0.04123   0.73198   1.00
C3       0.21962    0.04114    0.73451   1.00
C2       0.24966    -0.10512   0.75115   1.00
C2       0.25034    0.10512    0.74885   1.00
C3       0.27886    -0.08462   0.77178   1.00
C3       0.28124    0.08481    0.76704   1.00
C3       0.22091    -0.08258   0.73196   1.00
C3       0.22029    0.08238    0.73206   1.00
H1       0.30119    -0.03115   0.78869   1.00
H1       0.30566    0.03148    0.78126   1.00
C5       0.19225    -0.02020   0.71144   1.00
C5       0.18745    0.02020    0.71911   1.00
H1       0.30023    -0.09955   0.78652   1.00
H1       0.30392    0.09990    0.77950   1.00
H1       0.19877    -0.09680   0.71779   1.00
H1       0.19853    0.09632    0.71716   1.00
O3       0.16766    -0.03961   0.68623   1.00
O3       0.15321    0.03901    0.70906   1.00
Si1      0.17862    -0.04247   0.63994   1.00
Si1      0.12071    0.04721    0.74288   1.00
C6       0.14131    -0.07538   0.62657   1.00
C6       0.17075    0.00402    0.61936   1.00
C6       0.22528    -0.06253   0.63125   1.00
C6       0.13169    0.03307    0.79126   1.00
C6       0.11448    0.09802    0.74095   1.00
C6       0.07686    0.02523    0.72748   1.00
C6       0.13630    -0.11194   0.65362   1.00
H2       0.11504    -0.05791   0.63105   1.00
C6       0.13823    -0.09147   0.58379   1.00
H2       0.14915    0.01642    0.63919   1.00
C6       0.20547    0.03366    0.61876   1.00
C6       0.15212    0.00664    0.57774   1.00
H2       0.22510    -0.08831   0.65004   1.00
C6       0.23401    -0.07772   0.58901   1.00
C6       0.26270    -0.03849   0.64248   1.00
C6       0.14196    -0.01071   0.79903   1.00
C6       0.16134    0.05775    0.81579   1.00
H2       0.10394    0.03788    0.80614   1.00
H2       0.14183    0.10949    0.75253   1.00
C6       0.11041    0.11622    0.69922   1.00
C6       0.08114    0.11607    0.76634   1.00
H2       0.06446    0.04625    0.70700   1.00
C6       0.08089    -0.01336   0.70373   1.00
C6       0.04448    0.01756    0.75881   1.00
H2       0.13186    -0.10346   0.68403   1.00
H2       0.16191    -0.13090   0.65230   1.00
H2       0.11082    -0.12917   0.64514   1.00
H2       0.10762    -0.09608   0.57604   1.00
H2       0.15063    -0.07178   0.56224   1.00
H2       0.15275    -0.11964   0.58039   1.00
H2       0.19494    0.06328    0.61323   1.00
H2       0.22079    0.03468    0.64655   1.00
H2       0.22637    0.02648    0.59582   1.00
H2       0.12420    -0.00862   0.57651   1.00
H2       0.14605    0.03692    0.56963   1.00
H2       0.17161    -0.00550   0.55563   1.00
H2       0.22830    -0.05514   0.56726   1.00
H2       0.26436    -0.08708   0.58565   1.00
H2       0.21663    -0.10332   0.58213   1.00
H2       0.27192    -0.01902   0.61901   1.00
H2       0.25899    -0.02068   0.66832   1.00
H2       0.28705    -0.05828   0.64835   1.00
H2       0.17255    -0.01688   0.79297   1.00
H2       0.13687    -0.01809   0.82965   1.00
H2       0.12420    -0.03048   0.78165   1.00
H2       0.16083    0.04875    0.84641   1.00
H2       0.19122    0.05426    0.80565   1.00
H2       0.15427    0.08878    0.81551   1.00
H2       0.11339    0.14798    0.70058   1.00
H2       0.13324    0.10565    0.67963   1.00
H2       0.08218    0.10965    0.68604   1.00
H2       0.08240    0.10584    0.79646   1.00
H2       0.08379    0.14788    0.76721   1.00
H2       0.05239    0.10915    0.75444   1.00
H2       0.09447    -0.03656   0.72073   1.00
H2       0.05261    -0.02381   0.69337   1.00
H2       0.09883    -0.00834   0.67811   1.00
H2       0.01690    0.00956    0.74487   1.00
H2       0.05264    -0.00622   0.77842   1.00
H2       0.03870    0.04343    0.77638   1.00
C4       0.25281    0.25116    0.47916   1.00
C4       0.25215    0.25145    0.52088   1.00
C3       0.27276    0.27943    0.45636   1.00
C3       0.26831    0.28194    0.54384   1.00
C3       0.23198    0.22141    0.45877   1.00
C3       0.23451    0.21962    0.54114   1.00
C2       0.25115    0.24966    0.39488   1.00
C2       0.24885    0.25034    0.60512   1.00
C3       0.27178    0.27886    0.41538   1.00
C3       0.26704    0.28124    0.58481   1.00
C3       0.23196    0.22091    0.41742   1.00
C3       0.23206    0.22029    0.58238   1.00
H1       0.28869    0.30119    0.46885   1.00
H1       0.28126    0.30566    0.53148   1.00
C5       0.21144    0.19225    0.47980   1.00
C5       0.21911    0.18745    0.52020   1.00
H1       0.28652    0.30023    0.40045   1.00
H1       0.27950    0.30392    0.59990   1.00
H1       0.21779    0.19877    0.40320   1.00
H1       0.21716    0.19853    0.59632   1.00
O3       0.18623    0.16766    0.46039   1.00
O3       0.20906    0.15321    0.53901   1.00
Si1      0.13994    0.17862    0.45753   1.00
Si1      0.24288    0.12071    0.54721   1.00
C6       0.12657    0.14131    0.42462   1.00
C6       0.11936    0.17075    0.50402   1.00
C6       0.13125    0.22528    0.43747   1.00
C6       0.29126    0.13169    0.53307   1.00
C6       0.24095    0.11448    0.59802   1.00
C6       0.22748    0.07686    0.52523   1.00
C6       0.15362    0.13630    0.38806   1.00
H2       0.13105    0.11504    0.44209   1.00
C6       0.08379    0.13823    0.40853   1.00
H2       0.13919    0.14915    0.51642   1.00
C6       0.11876    0.20547    0.53366   1.00
C6       0.07774    0.15212    0.50664   1.00
H2       0.15004    0.22510    0.41169   1.00
C6       0.08901    0.23401    0.42228   1.00
C6       0.14248    0.26270    0.46151   1.00
C6       0.29903    0.14196    0.48929   1.00
C6       0.31579    0.16134    0.55775   1.00
H2       0.30614    0.10394    0.53788   1.00
H2       0.25253    0.14183    0.60949   1.00
C6       0.19922    0.11041    0.61622   1.00
C6       0.26634    0.08114    0.61607   1.00
H2       0.20700    0.06446    0.54625   1.00
C6       0.20373    0.08089    0.48664   1.00
C6       0.25881    0.04448    0.51756   1.00
H2       0.18403    0.13186    0.39654   1.00
H2       0.15230    0.16191    0.36910   1.00
H2       0.14514    0.11082    0.37083   1.00
H2       0.07604    0.10762    0.40392   1.00
H2       0.06224    0.15063    0.42822   1.00
H2       0.08039    0.15275    0.38036   1.00
H2       0.11323    0.19494    0.56328   1.00
H2       0.14655    0.22079    0.53468   1.00
H2       0.09582    0.22637    0.52648   1.00
H2       0.07651    0.12420    0.49138   1.00
H2       0.06963    0.14605    0.53692   1.00
H2       0.05563    0.17161    0.49450   1.00
H2       0.06726    0.22830    0.44486   1.00
H2       0.08565    0.26436    0.41292   1.00
H2       0.08213    0.21663    0.39668   1.00
H2       0.11901    0.27192    0.48098   1.00
H2       0.16832    0.25899    0.47932   1.00
H2       0.14835    0.28705    0.44172   1.00
H2       0.29297    0.17255    0.48312   1.00
H2       0.32965    0.13687    0.48191   1.00
H2       0.28165    0.12420    0.46952   1.00
H2       0.34641    0.16083    0.54875   1.00
H2       0.30565    0.19122    0.55426   1.00
H2       0.31551    0.15427    0.58878   1.00
H2       0.20058    0.11339    0.64798   1.00
H2       0.17963    0.13324    0.60565   1.00
H2       0.18604    0.08218    0.60965   1.00
H2       0.29646    0.08240    0.60584   1.00
H2       0.26721    0.08379    0.64788   1.00
H2       0.25444    0.05239    0.60915   1.00
H2       0.22073    0.09447    0.46344   1.00
H2       0.19337    0.05261    0.47619   1.00
H2       0.17811    0.09883    0.49166   1.00
H2       0.24487    0.01690    0.50956   1.00
H2       0.27842    0.05264    0.49378   1.00
H2       0.27638    0.03870    0.54343   1.00
C4       0.25281    0.74884    0.52084   1.00
C4       0.25215    0.74855    0.47912   1.00
C3       0.27276    0.72057    0.54364   1.00
C3       0.26831    0.71806    0.45616   1.00
C3       0.23198    0.77859    0.54123   1.00
C3       0.23451    0.78038    0.45886   1.00
C2       0.25115    0.75034    0.60512   1.00
C2       0.24885    0.74966    0.39488   1.00
C3       0.27178    0.72114    0.58462   1.00
C3       0.26704    0.71876    0.41519   1.00
C3       0.23196    0.77909    0.58258   1.00
C3       0.23206    0.77971    0.41762   1.00
H1       0.28869    0.69881    0.53115   1.00
H1       0.28126    0.69434    0.46852   1.00
C5       0.21144    0.80775    0.52020   1.00
C5       0.21911    0.81255    0.47980   1.00
H1       0.28652    0.69977    0.59955   1.00
H1       0.27950    0.69608    0.40010   1.00
H1       0.21779    0.80123    0.59680   1.00
H1       0.21716    0.80147    0.40368   1.00
O3       0.18623    0.83234    0.53961   1.00
O3       0.20906    0.84679    0.46099   1.00
Si1      0.13994    0.82138    0.54247   1.00
Si1      0.24288    0.87929    0.45279   1.00
C6       0.12657    0.85869    0.57538   1.00
C6       0.11936    0.82925    0.49598   1.00
C6       0.13125    0.77472    0.56253   1.00
C6       0.29126    0.86831    0.46693   1.00
C6       0.24095    0.88552    0.40198   1.00
C6       0.22748    0.92314    0.47477   1.00
C6       0.15362    0.86370    0.61194   1.00
H2       0.13105    0.88496    0.55791   1.00
C6       0.08379    0.86177    0.59147   1.00
H2       0.13919    0.85085    0.48358   1.00
C6       0.11876    0.79453    0.46634   1.00
C6       0.07774    0.84788    0.49336   1.00
H2       0.15004    0.77490    0.58831   1.00
C6       0.08901    0.76599    0.57772   1.00
C6       0.14248    0.73730    0.53849   1.00
C6       0.29903    0.85804    0.51071   1.00
C6       0.31579    0.83866    0.44225   1.00
H2       0.30614    0.89606    0.46212   1.00
H2       0.25253    0.85817    0.39051   1.00
C6       0.19922    0.88959    0.38378   1.00
C6       0.26634    0.91886    0.38393   1.00
H2       0.20700    0.93554    0.45375   1.00
C6       0.20373    0.91911    0.51336   1.00
C6       0.25881    0.95552    0.48244   1.00
H2       0.18403    0.86814    0.60346   1.00
H2       0.15230    0.83809    0.63090   1.00
H2       0.14514    0.88918    0.62917   1.00
H2       0.07604    0.89238    0.59608   1.00
H2       0.06224    0.84937    0.57178   1.00
H2       0.08039    0.84725    0.61964   1.00
H2       0.11323    0.80506    0.43672   1.00
H2       0.14655    0.77921    0.46532   1.00
H2       0.09582    0.77363    0.47352   1.00
H2       0.07651    0.87580    0.50862   1.00
H2       0.06963    0.85395    0.46308   1.00
H2       0.05563    0.82839    0.50550   1.00
H2       0.06726    0.77170    0.55514   1.00
H2       0.08565    0.73564    0.58708   1.00
H2       0.08213    0.78337    0.60332   1.00
H2       0.11901    0.72808    0.51902   1.00
H2       0.16832    0.74101    0.52068   1.00
H2       0.14835    0.71295    0.55828   1.00
H2       0.29297    0.82745    0.51688   1.00
H2       0.32965    0.86313    0.51809   1.00
H2       0.28165    0.87580    0.53048   1.00
H2       0.34641    0.83917    0.45125   1.00
H2       0.30565    0.80878    0.44574   1.00
H2       0.31551    0.84573    0.41122   1.00
H2       0.20058    0.88661    0.35202   1.00
H2       0.17963    0.86676    0.39435   1.00
H2       0.18604    0.91782    0.39035   1.00
H2       0.29646    0.91760    0.39416   1.00
H2       0.26721    0.91621    0.35212   1.00
H2       0.25444    0.94761    0.39085   1.00
H2       0.22073    0.90553    0.53656   1.00
H2       0.19337    0.94739    0.52381   1.00
H2       0.17811    0.90117    0.50834   1.00
H2       0.24487    0.98310    0.49044   1.00
H2       0.27842    0.94736    0.50622   1.00
H2       0.27638    0.96130    0.45657   1.00
C4       0.24884    1.02084    0.25281   1.00
C4       0.24855    0.97912    0.25215   1.00
C3       0.22057    1.04364    0.27276   1.00
C3       0.21806    0.95616    0.26831   1.00
C3       0.27859    1.04123    0.23198   1.00
C3       0.28038    0.95886    0.23451   1.00
C2       0.25034    1.10512    0.25115   1.00
C2       0.24966    0.89488    0.24885   1.00
C3       0.22114    1.08462    0.27178   1.00
C3       0.21876    0.91519    0.26704   1.00
C3       0.27909    1.08258    0.23196   1.00
C3       0.27971    0.91762    0.23206   1.00
H1       0.19881    1.03115    0.28869   1.00
H1       0.19434    0.96852    0.28126   1.00
C5       0.30775    1.02020    0.21144   1.00
C5       0.31255    0.97980    0.21911   1.00
H1       0.19977    1.09955    0.28652   1.00
H1       0.19608    0.90010    0.27950   1.00
H1       0.30123    1.09680    0.21779   1.00
H1       0.30147    0.90368    0.21716   1.00
O3       0.33234    1.03961    0.18623   1.00
O3       0.34679    0.96099    0.20906   1.00
Si1      0.32138    1.04247    0.13994   1.00
Si1      0.37929    0.95279    0.24288   1.00
C6       0.35869    1.07538    0.12657   1.00
C6       0.32925    0.99598    0.11936   1.00
C6       0.27472    1.06253    0.13125   1.00
C6       0.36831    0.96693    0.29126   1.00
C6       0.38552    0.90198    0.24095   1.00
C6       0.42314    0.97477    0.22748   1.00
C6       0.36370    1.11194    0.15362   1.00
H2       0.38496    1.05791    0.13105   1.00
C6       0.36177    1.09147    0.08379   1.00
H2       0.35085    0.98358    0.13919   1.00
C6       0.29453    0.96634    0.11876   1.00
C6       0.34788    0.99336    0.07774   1.00
H2       0.27490    1.08831    0.15004   1.00
C6       0.26599    1.07772    0.08901   1.00
C6       0.23730    1.03849    0.14248   1.00
C6       0.35804    1.01071    0.29903   1.00
C6       0.33866    0.94225    0.31579   1.00
H2       0.39606    0.96212    0.30614   1.00
H2       0.35817    0.89051    0.25253   1.00
C6       0.38959    0.88378    0.19922   1.00
C6       0.41886    0.88393    0.26634   1.00
H2       0.43554    0.95375    0.20700   1.00
C6       0.41911    1.01336    0.20373   1.00
C6       0.45552    0.98244    0.25881   1.00
H2       0.36814    1.10346    0.18403   1.00
H2       0.33809    1.13090    0.15230   1.00
H2       0.38918    1.12917    0.14514   1.00
H2       0.39238    1.09608    0.07604   1.00
H2       0.34937    1.07178    0.06224   1.00
H2       0.34725    1.11964    0.08039   1.00
H2       0.30506    0.93672    0.11323   1.00
H2       0.27921    0.96532    0.14655   1.00
H2       0.27363    0.97352    0.09582   1.00
H2       0.37580    1.00862    0.07651   1.00
H2       0.35395    0.96308    0.06963   1.00
H2       0.32839    1.00550    0.05563   1.00
H2       0.27170    1.05514    0.06726   1.00
H2       0.23564    1.08708    0.08565   1.00
H2       0.28337    1.10332    0.08213   1.00
H2       0.22808    1.01902    0.11901   1.00
H2       0.24101    1.02068    0.16832   1.00
H2       0.21295    1.05828    0.14835   1.00
H2       0.32745    1.01688    0.29297   1.00
H2       0.36313    1.01809    0.32965   1.00
H2       0.37580    1.03048    0.28165   1.00
H2       0.33917    0.95125    0.34641   1.00
H2       0.30878    0.94574    0.30565   1.00
H2       0.34573    0.91122    0.31551   1.00
H2       0.38661    0.85202    0.20058   1.00
H2       0.36676    0.89435    0.17963   1.00
H2       0.41782    0.89035    0.18604   1.00
H2       0.41760    0.89416    0.29646   1.00
H2       0.41621    0.85212    0.26721   1.00
H2       0.44761    0.89085    0.25444   1.00
H2       0.40553    1.03656    0.22073   1.00
H2       0.44739    1.02381    0.19337   1.00
H2       0.40117    1.00834    0.17811   1.00
H2       0.48310    0.99044    0.24487   1.00
H2       0.44736    1.00622    0.27842   1.00
H2       0.46130    0.95657    0.27638   1.00
C4       -0.02084   0.75281    0.25116   1.00
C4       0.02088    0.75215    0.25145   1.00
C3       -0.04364   0.77276    0.27943   1.00
C3       0.04384    0.76831    0.28194   1.00
C3       -0.04123   0.73198    0.22141   1.00
C3       0.04114    0.73451    0.21962   1.00
C2       -0.10512   0.75115    0.24966   1.00
C2       0.10512    0.74885    0.25034   1.00
C3       -0.08462   0.77178    0.27886   1.00
C3       0.08481    0.76704    0.28124   1.00
C3       -0.08258   0.73196    0.22091   1.00
C3       0.08238    0.73206    0.22029   1.00
H1       -0.03115   0.78869    0.30119   1.00
H1       0.03148    0.78126    0.30566   1.00
C5       -0.02020   0.71144    0.19225   1.00
C5       0.02020    0.71911    0.18745   1.00
H1       -0.09955   0.78652    0.30023   1.00
H1       0.09990    0.77950    0.30392   1.00
H1       -0.09680   0.71779    0.19877   1.00
H1       0.09632    0.71716    0.19853   1.00
O3       -0.03961   0.68623    0.16766   1.00
O3       0.03901    0.70906    0.15321   1.00
Si1      -0.04247   0.63994    0.17862   1.00
Si1      0.04721    0.74288    0.12071   1.00
C6       -0.07538   0.62657    0.14131   1.00
C6       0.00402    0.61936    0.17075   1.00
C6       -0.06253   0.63125    0.22528   1.00
C6       0.03307    0.79126    0.13169   1.00
C6       0.09802    0.74095    0.11448   1.00
C6       0.02523    0.72748    0.07686   1.00
C6       -0.11194   0.65362    0.13630   1.00
H2       -0.05791   0.63105    0.11504   1.00
C6       -0.09147   0.58379    0.13823   1.00
H2       0.01642    0.63919    0.14915   1.00
C6       0.03366    0.61876    0.20547   1.00
C6       0.00664    0.57774    0.15212   1.00
H2       -0.08831   0.65004    0.22510   1.00
C6       -0.07772   0.58901    0.23401   1.00
C6       -0.03849   0.64248    0.26270   1.00
C6       -0.01071   0.79903    0.14196   1.00
C6       0.05775    0.81579    0.16134   1.00
H2       0.03788    0.80614    0.10394   1.00
H2       0.10949    0.75253    0.14183   1.00
C6       0.11622    0.69922    0.11041   1.00
C6       0.11607    0.76634    0.08114   1.00
H2       0.04625    0.70700    0.06446   1.00
C6       -0.01336   0.70373    0.08089   1.00
C6       0.01756    0.75881    0.04448   1.00
H2       -0.10346   0.68403    0.13186   1.00
H2       -0.13090   0.65230    0.16191   1.00
H2       -0.12917   0.64514    0.11082   1.00
H2       -0.09608   0.57604    0.10762   1.00
H2       -0.07178   0.56224    0.15063   1.00
H2       -0.11964   0.58039    0.15275   1.00
H2       0.06328    0.61323    0.19494   1.00
H2       0.03468    0.64655    0.22079   1.00
H2       0.02648    0.59582    0.22637   1.00
H2       -0.00862   0.57651    0.12420   1.00
H2       0.03692    0.56963    0.14605   1.00
H2       -0.00550   0.55563    0.17161   1.00
H2       -0.05514   0.56726    0.22830   1.00
H2       -0.08708   0.58565    0.26436   1.00
H2       -0.10332   0.58213    0.21663   1.00
H2       -0.01902   0.61901    0.27192   1.00
H2       -0.02068   0.66832    0.25899   1.00
H2       -0.05828   0.64835    0.28705   1.00
H2       -0.01688   0.79297    0.17255   1.00
H2       -0.01809   0.82965    0.13687   1.00
H2       -0.03048   0.78165    0.12420   1.00
H2       0.04875    0.84641    0.16083   1.00
H2       0.05426    0.80565    0.19122   1.00
H2       0.08878    0.81551    0.15427   1.00
H2       0.14798    0.70058    0.11339   1.00
H2       0.10565    0.67963    0.13324   1.00
H2       0.10965    0.68604    0.08218   1.00
H2       0.10584    0.79646    0.08240   1.00
H2       0.14788    0.76721    0.08379   1.00
H2       0.10915    0.75444    0.05239   1.00
H2       -0.03656   0.72073    0.09447   1.00
H2       -0.02381   0.69337    0.05261   1.00
H2       -0.00834   0.67811    0.09883   1.00
H2       0.00956    0.74487    0.01690   1.00
H2       -0.00622   0.77842    0.05264   1.00
H2       0.04343    0.77638    0.03870   1.00
C4       0.52084    0.75281    0.24884   1.00
C4       0.47912    0.75215    0.24855   1.00
C3       0.54364    0.77276    0.22057   1.00
C3       0.45616    0.76831    0.21806   1.00
C3       0.54123    0.73198    0.27859   1.00
C3       0.45886    0.73451    0.28038   1.00
C2       0.60512    0.75115    0.25034   1.00
C2       0.39488    0.74885    0.24966   1.00
C3       0.58462    0.77178    0.22114   1.00
C3       0.41519    0.76704    0.21876   1.00
C3       0.58258    0.73196    0.27909   1.00
C3       0.41762    0.73206    0.27971   1.00
H1       0.53115    0.78869    0.19881   1.00
H1       0.46852    0.78126    0.19434   1.00
C5       0.52020    0.71144    0.30775   1.00
C5       0.47980    0.71911    0.31255   1.00
H1       0.59955    0.78652    0.19977   1.00
H1       0.40010    0.77950    0.19608   1.00
H1       0.59680    0.71779    0.30123   1.00
H1       0.40368    0.71716    0.30147   1.00
O3       0.53961    0.68623    0.33234   1.00
O3       0.46099    0.70906    0.34679   1.00
Si1      0.54247    0.63994    0.32138   1.00
Si1      0.45279    0.74288    0.37929   1.00
C6       0.57538    0.62657    0.35869   1.00
C6       0.49598    0.61936    0.32925   1.00
C6       0.56253    0.63125    0.27472   1.00
C6       0.46693    0.79126    0.36831   1.00
C6       0.40198    0.74095    0.38552   1.00
C6       0.47477    0.72748    0.42314   1.00
C6       0.61194    0.65362    0.36370   1.00
H2       0.55791    0.63105    0.38496   1.00
C6       0.59147    0.58379    0.36177   1.00
H2       0.48358    0.63919    0.35085   1.00
C6       0.46634    0.61876    0.29453   1.00
C6       0.49336    0.57774    0.34788   1.00
H2       0.58831    0.65004    0.27490   1.00
C6       0.57772    0.58901    0.26599   1.00
C6       0.53849    0.64248    0.23730   1.00
C6       0.51071    0.79903    0.35804   1.00
C6       0.44225    0.81579    0.33866   1.00
H2       0.46212    0.80614    0.39606   1.00
H2       0.39051    0.75253    0.35817   1.00
C6       0.38378    0.69922    0.38959   1.00
C6       0.38393    0.76634    0.41886   1.00
H2       0.45375    0.70700    0.43554   1.00
C6       0.51336    0.70373    0.41911   1.00
C6       0.48244    0.75881    0.45552   1.00
H2       0.60346    0.68403    0.36814   1.00
H2       0.63090    0.65230    0.33809   1.00
H2       0.62917    0.64514    0.38918   1.00
H2       0.59608    0.57604    0.39238   1.00
H2       0.57178    0.56224    0.34937   1.00
H2       0.61964    0.58039    0.34725   1.00
H2       0.43672    0.61323    0.30506   1.00
H2       0.46532    0.64655    0.27921   1.00
H2       0.47352    0.59582    0.27363   1.00
H2       0.50862    0.57651    0.37580   1.00
H2       0.46308    0.56963    0.35395   1.00
H2       0.50550    0.55563    0.32839   1.00
H2       0.55514    0.56726    0.27170   1.00
H2       0.58708    0.58565    0.23564   1.00
H2       0.60332    0.58213    0.28337   1.00
H2       0.51902    0.61901    0.22808   1.00
H2       0.52068    0.66832    0.24101   1.00
H2       0.55828    0.64835    0.21295   1.00
H2       0.51688    0.79297    0.32745   1.00
H2       0.51809    0.82965    0.36313   1.00
H2       0.53048    0.78165    0.37580   1.00
H2       0.45125    0.84641    0.33917   1.00
H2       0.44574    0.80565    0.30878   1.00
H2       0.41122    0.81551    0.34573   1.00
H2       0.35202    0.70058    0.38661   1.00
H2       0.39435    0.67963    0.36676   1.00
H2       0.39035    0.68604    0.41782   1.00
H2       0.39416    0.79646    0.41760   1.00
H2       0.35212    0.76721    0.41621   1.00
H2       0.39085    0.75444    0.44761   1.00
H2       0.53656    0.72073    0.40553   1.00
H2       0.52381    0.69337    0.44739   1.00
H2       0.50834    0.67811    0.40117   1.00
H2       0.49044    0.74487    0.48310   1.00
H2       0.50622    0.77842    0.44736   1.00
H2       0.45657    0.77638    0.46130   1.00
C4       0.25116    0.47916    0.25281   1.00
C4       0.25145    0.52088    0.25215   1.00
C3       0.27943    0.45636    0.27276   1.00
C3       0.28194    0.54384    0.26831   1.00
C3       0.22141    0.45877    0.23198   1.00
C3       0.21962    0.54114    0.23451   1.00
C2       0.24966    0.39488    0.25115   1.00
C2       0.25034    0.60512    0.24885   1.00
C3       0.27886    0.41538    0.27178   1.00
C3       0.28124    0.58481    0.26704   1.00
C3       0.22091    0.41742    0.23196   1.00
C3       0.22029    0.58238    0.23206   1.00
H1       0.30119    0.46885    0.28869   1.00
H1       0.30566    0.53148    0.28126   1.00
C5       0.19225    0.47980    0.21144   1.00
C5       0.18745    0.52020    0.21911   1.00
H1       0.30023    0.40045    0.28652   1.00
H1       0.30392    0.59990    0.27950   1.00
H1       0.19877    0.40320    0.21779   1.00
H1       0.19853    0.59632    0.21716   1.00
O3       0.16766    0.46039    0.18623   1.00
O3       0.15321    0.53901    0.20906   1.00
Si1      0.17862    0.45753    0.13994   1.00
Si1      0.12071    0.54721    0.24288   1.00
C6       0.14131    0.42462    0.12657   1.00
C6       0.17075    0.50402    0.11936   1.00
C6       0.22528    0.43747    0.13125   1.00
C6       0.13169    0.53307    0.29126   1.00
C6       0.11448    0.59802    0.24095   1.00
C6       0.07686    0.52523    0.22748   1.00
C6       0.13630    0.38806    0.15362   1.00
H2       0.11504    0.44209    0.13105   1.00
C6       0.13823    0.40853    0.08379   1.00
H2       0.14915    0.51642    0.13919   1.00
C6       0.20547    0.53366    0.11876   1.00
C6       0.15212    0.50664    0.07774   1.00
H2       0.22510    0.41169    0.15004   1.00
C6       0.23401    0.42228    0.08901   1.00
C6       0.26270    0.46151    0.14248   1.00
C6       0.14196    0.48929    0.29903   1.00
C6       0.16134    0.55775    0.31579   1.00
H2       0.10394    0.53788    0.30614   1.00
H2       0.14183    0.60949    0.25253   1.00
C6       0.11041    0.61622    0.19922   1.00
C6       0.08114    0.61607    0.26634   1.00
H2       0.06446    0.54625    0.20700   1.00
C6       0.08089    0.48664    0.20373   1.00
C6       0.04448    0.51756    0.25881   1.00
H2       0.13186    0.39654    0.18403   1.00
H2       0.16191    0.36910    0.15230   1.00
H2       0.11082    0.37083    0.14514   1.00
H2       0.10762    0.40392    0.07604   1.00
H2       0.15063    0.42822    0.06224   1.00
H2       0.15275    0.38036    0.08039   1.00
H2       0.19494    0.56328    0.11323   1.00
H2       0.22079    0.53468    0.14655   1.00
H2       0.22637    0.52648    0.09582   1.00
H2       0.12420    0.49138    0.07651   1.00
H2       0.14605    0.53692    0.06963   1.00
H2       0.17161    0.49450    0.05563   1.00
H2       0.22830    0.44486    0.06726   1.00
H2       0.26436    0.41292    0.08565   1.00
H2       0.21663    0.39668    0.08213   1.00
H2       0.27192    0.48098    0.11901   1.00
H2       0.25899    0.47932    0.16832   1.00
H2       0.28705    0.44172    0.14835   1.00
H2       0.17255    0.48312    0.29297   1.00
H2       0.13687    0.48191    0.32965   1.00
H2       0.12420    0.46952    0.28165   1.00
H2       0.16083    0.54875    0.34641   1.00
H2       0.19122    0.55426    0.30565   1.00
H2       0.15427    0.58878    0.31551   1.00
H2       0.11339    0.64798    0.20058   1.00
H2       0.13324    0.60565    0.17963   1.00
H2       0.08218    0.60965    0.18604   1.00
H2       0.08240    0.60584    0.29646   1.00
H2       0.08379    0.64788    0.26721   1.00
H2       0.05239    0.60915    0.25444   1.00
H2       0.09447    0.46344    0.22073   1.00
H2       0.05261    0.47619    0.19337   1.00
H2       0.09883    0.49166    0.17811   1.00
H2       0.01690    0.50956    0.24487   1.00
H2       0.05264    0.49378    0.27842   1.00
H2       0.03870    0.54343    0.27638   1.00
C4       0.25281    0.75116    -0.02084   1.00
C4       0.25215    0.75145    0.02088   1.00
C3       0.27276    0.77943    -0.04364   1.00
C3       0.26831    0.78194    0.04384   1.00
C3       0.23198    0.72141    -0.04123   1.00
C3       0.23451    0.71962    0.04114   1.00
C2       0.25115    0.74966    -0.10512   1.00
C2       0.24885    0.75034    0.10512   1.00
C3       0.27178    0.77886    -0.08462   1.00
C3       0.26704    0.78124    0.08481   1.00
C3       0.23196    0.72091    -0.08258   1.00
C3       0.23206    0.72029    0.08238   1.00
H1       0.28869    0.80119    -0.03115   1.00
H1       0.28126    0.80566    0.03148   1.00
C5       0.21144    0.69225    -0.02020   1.00
C5       0.21911    0.68745    0.02020   1.00
H1       0.28652    0.80023    -0.09955   1.00
H1       0.27950    0.80392    0.09990   1.00
H1       0.21779    0.69877    -0.09680   1.00
H1       0.21716    0.69853    0.09632   1.00
O3       0.18623    0.66766    -0.03961   1.00
O3       0.20906    0.65321    0.03901   1.00
Si1      0.13994    0.67862    -0.04247   1.00
Si1      0.24288    0.62071    0.04721   1.00
C6       0.12657    0.64131    -0.07538   1.00
C6       0.11936    0.67075    0.00402   1.00
C6       0.13125    0.72528    -0.06253   1.00
C6       0.29126    0.63169    0.03307   1.00
C6       0.24095    0.61448    0.09802   1.00
C6       0.22748    0.57686    0.02523   1.00
C6       0.15362    0.63630    -0.11194   1.00
H2       0.13105    0.61504    -0.05791   1.00
C6       0.08379    0.63823    -0.09147   1.00
H2       0.13919    0.64915    0.01642   1.00
C6       0.11876    0.70547    0.03366   1.00
C6       0.07774    0.65212    0.00664   1.00
H2       0.15004    0.72510    -0.08831   1.00
C6       0.08901    0.73401    -0.07772   1.00
C6       0.14248    0.76270    -0.03849   1.00
C6       0.29903    0.64196    -0.01071   1.00
C6       0.31579    0.66134    0.05775   1.00
H2       0.30614    0.60394    0.03788   1.00
H2       0.25253    0.64183    0.10949   1.00
C6       0.19922    0.61041    0.11622   1.00
C6       0.26634    0.58114    0.11607   1.00
H2       0.20700    0.56446    0.04625   1.00
C6       0.20373    0.58089    -0.01336   1.00
C6       0.25881    0.54448    0.01756   1.00
H2       0.18403    0.63186    -0.10346   1.00
H2       0.15230    0.66191    -0.13090   1.00
H2       0.14514    0.61082    -0.12917   1.00
H2       0.07604    0.60762    -0.09608   1.00
H2       0.06224    0.65063    -0.07178   1.00
H2       0.08039    0.65275    -0.11964   1.00
H2       0.11323    0.69494    0.06328   1.00
H2       0.14655    0.72079    0.03468   1.00
H2       0.09582    0.72637    0.02648   1.00
H2       0.07651    0.62420    -0.00862   1.00
H2       0.06963    0.64605    0.03692   1.00
H2       0.05563    0.67161    -0.00550   1.00
H2       0.06726    0.72830    -0.05514   1.00
H2       0.08565    0.76436    -0.08708   1.00
H2       0.08213    0.71663    -0.10332   1.00
H2       0.11901    0.77192    -0.01902   1.00
H2       0.16832    0.75899    -0.02068   1.00
H2       0.14835    0.78705    -0.05828   1.00
H2       0.29297    0.67255    -0.01688   1.00
H2       0.32965    0.63687    -0.01809   1.00
H2       0.28165    0.62420    -0.03048   1.00
H2       0.34641    0.66083    0.04875   1.00
H2       0.30565    0.69122    0.05426   1.00
H2       0.31551    0.65427    0.08878   1.00
H2       0.20058    0.61339    0.14798   1.00
H2       0.17963    0.63324    0.10565   1.00
H2       0.18604    0.58218    0.10965   1.00
H2       0.29646    0.58240    0.10584   1.00
H2       0.26721    0.58379    0.14788   1.00
H2       0.25444    0.55239    0.10915   1.00
H2       0.22073    0.59447    -0.03656   1.00
H2       0.19337    0.55261    -0.02381   1.00
H2       0.17811    0.59883    -0.00834   1.00
H2       0.24487    0.51690    0.00956   1.00
H2       0.27842    0.55264    -0.00622   1.00
H2       0.27638    0.53870    0.04343   1.00
C4       0.75281    0.24884    0.52084   1.00
C4       0.75215    0.24855    0.47912   1.00
C3       0.77276    0.22057    0.54364   1.00
C3       0.76831    0.21806    0.45616   1.00
C3       0.73198    0.27859    0.54123   1.00
C3       0.73451    0.28038    0.45886   1.00
C2       0.75115    0.25034    0.60512   1.00
C2       0.74885    0.24966    0.39488   1.00
C3       0.77178    0.22114    0.58462   1.00
C3       0.76704    0.21876    0.41519   1.00
C3       0.73196    0.27909    0.58258   1.00
C3       0.73206    0.27971    0.41762   1.00
H1       0.78869    0.19881    0.53115   1.00
H1       0.78126    0.19434    0.46852   1.00
C5       0.71144    0.30775    0.52020   1.00
C5       0.71911    0.31255    0.47980   1.00
H1       0.78652    0.19977    0.59955   1.00
H1       0.77950    0.19608    0.40010   1.00
H1       0.71779    0.30123    0.59680   1.00
H1       0.71716    0.30147    0.40368   1.00
O3       0.68623    0.33234    0.53961   1.00
O3       0.70906    0.34679    0.46099   1.00
Si1      0.63994    0.32138    0.54247   1.00
Si1      0.74288    0.37929    0.45279   1.00
C6       0.62657    0.35869    0.57538   1.00
C6       0.61936    0.32925    0.49598   1.00
C6       0.63125    0.27472    0.56253   1.00
C6       0.79126    0.36831    0.46693   1.00
C6       0.74095    0.38552    0.40198   1.00
C6       0.72748    0.42314    0.47477   1.00
C6       0.65362    0.36370    0.61194   1.00
H2       0.63105    0.38496    0.55791   1.00
C6       0.58379    0.36177    0.59147   1.00
H2       0.63919    0.35085    0.48358   1.00
C6       0.61876    0.29453    0.46634   1.00
C6       0.57774    0.34788    0.49336   1.00
H2       0.65004    0.27490    0.58831   1.00
C6       0.58901    0.26599    0.57772   1.00
C6       0.64248    0.23730    0.53849   1.00
C6       0.79903    0.35804    0.51071   1.00
C6       0.81579    0.33866    0.44225   1.00
H2       0.80614    0.39606    0.46212   1.00
H2       0.75253    0.35817    0.39051   1.00
C6       0.69922    0.38959    0.38378   1.00
C6       0.76634    0.41886    0.38393   1.00
H2       0.70700    0.43554    0.45375   1.00
C6       0.70373    0.41911    0.51336   1.00
C6       0.75881    0.45552    0.48244   1.00
H2       0.68403    0.36814    0.60346   1.00
H2       0.65230    0.33809    0.63090   1.00
H2       0.64514    0.38918    0.62917   1.00
H2       0.57604    0.39238    0.59608   1.00
H2       0.56224    0.34937    0.57178   1.00
H2       0.58039    0.34725    0.61964   1.00
H2       0.61323    0.30506    0.43672   1.00
H2       0.64655    0.27921    0.46532   1.00
H2       0.59582    0.27363    0.47352   1.00
H2       0.57651    0.37580    0.50862   1.00
H2       0.56963    0.35395    0.46308   1.00
H2       0.55563    0.32839    0.50550   1.00
H2       0.56726    0.27170    0.55514   1.00
H2       0.58565    0.23564    0.58708   1.00
H2       0.58213    0.28337    0.60332   1.00
H2       0.61901    0.22808    0.51902   1.00
H2       0.66832    0.24101    0.52068   1.00
H2       0.64835    0.21295    0.55828   1.00
H2       0.79297    0.32745    0.51688   1.00
H2       0.82965    0.36313    0.51809   1.00
H2       0.78165    0.37580    0.53048   1.00
H2       0.84641    0.33917    0.45125   1.00
H2       0.80565    0.30878    0.44574   1.00
H2       0.81551    0.34573    0.41122   1.00
H2       0.70058    0.38661    0.35202   1.00
H2       0.67963    0.36676    0.39435   1.00
H2       0.68604    0.41782    0.39035   1.00
H2       0.79646    0.41760    0.39416   1.00
H2       0.76721    0.41621    0.35212   1.00
H2       0.75444    0.44761    0.39085   1.00
H2       0.72073    0.40553    0.53656   1.00
H2       0.69337    0.44739    0.52381   1.00
H2       0.67811    0.40117    0.50834   1.00
H2       0.74487    0.48310    0.49044   1.00
H2       0.77842    0.44736    0.50622   1.00
H2       0.77638    0.46130    0.45657   1.00
C4       0.74884    0.52084    0.25281   1.00
C4       0.74855    0.47912    0.25215   1.00
C3       0.72057    0.54364    0.27276   1.00
C3       0.71806    0.45616    0.26831   1.00
C3       0.77859    0.54123    0.23198   1.00
C3       0.78038    0.45886    0.23451   1.00
C2       0.75034    0.60512    0.25115   1.00
C2       0.74966    0.39488    0.24885   1.00
C3       0.72114    0.58462    0.27178   1.00
C3       0.71876    0.41519    0.26704   1.00
C3       0.77909    0.58258    0.23196   1.00
C3       0.77971    0.41762    0.23206   1.00
H1       0.69881    0.53115    0.28869   1.00
H1       0.69434    0.46852    0.28126   1.00
C5       0.80775    0.52020    0.21144   1.00
C5       0.81255    0.47980    0.21911   1.00
H1       0.69977    0.59955    0.28652   1.00
H1       0.69608    0.40010    0.27950   1.00
H1       0.80123    0.59680    0.21779   1.00
H1       0.80147    0.40368    0.21716   1.00
O3       0.83234    0.53961    0.18623   1.00
O3       0.84679    0.46099    0.20906   1.00
Si1      0.82138    0.54247    0.13994   1.00
Si1      0.87929    0.45279    0.24288   1.00
C6       0.85869    0.57538    0.12657   1.00
C6       0.82925    0.49598    0.11936   1.00
C6       0.77472    0.56253    0.13125   1.00
C6       0.86831    0.46693    0.29126   1.00
C6       0.88552    0.40198    0.24095   1.00
C6       0.92314    0.47477    0.22748   1.00
C6       0.86370    0.61194    0.15362   1.00
H2       0.88496    0.55791    0.13105   1.00
C6       0.86177    0.59147    0.08379   1.00
H2       0.85085    0.48358    0.13919   1.00
C6       0.79453    0.46634    0.11876   1.00
C6       0.84788    0.49336    0.07774   1.00
H2       0.77490    0.58831    0.15004   1.00
C6       0.76599    0.57772    0.08901   1.00
C6       0.73730    0.53849    0.14248   1.00
C6       0.85804    0.51071    0.29903   1.00
C6       0.83866    0.44225    0.31579   1.00
H2       0.89606    0.46212    0.30614   1.00
H2       0.85817    0.39051    0.25253   1.00
C6       0.88959    0.38378    0.19922   1.00
C6       0.91886    0.38393    0.26634   1.00
H2       0.93554    0.45375    0.20700   1.00
C6       0.91911    0.51336    0.20373   1.00
C6       0.95552    0.48244    0.25881   1.00
H2       0.86814    0.60346    0.18403   1.00
H2       0.83809    0.63090    0.15230   1.00
H2       0.88918    0.62917    0.14514   1.00
H2       0.89238    0.59608    0.07604   1.00
H2       0.84937    0.57178    0.06224   1.00
H2       0.84725    0.61964    0.08039   1.00
H2       0.80506    0.43672    0.11323   1.00
H2       0.77921    0.46532    0.14655   1.00
H2       0.77363    0.47352    0.09582   1.00
H2       0.87580    0.50862    0.07651   1.00
H2       0.85395    0.46308    0.06963   1.00
H2       0.82839    0.50550    0.05563   1.00
H2       0.77170    0.55514    0.06726   1.00
H2       0.73564    0.58708    0.08565   1.00
H2       0.78337    0.60332    0.08213   1.00
H2       0.72808    0.51902    0.11901   1.00
H2       0.74101    0.52068    0.16832   1.00
H2       0.71295    0.55828    0.14835   1.00
H2       0.82745    0.51688    0.29297   1.00
H2       0.86313    0.51809    0.32965   1.00
H2       0.87580    0.53048    0.28165   1.00
H2       0.83917    0.45125    0.34641   1.00
H2       0.80878    0.44574    0.30565   1.00
H2       0.84573    0.41122    0.31551   1.00
H2       0.88661    0.35202    0.20058   1.00
H2       0.86676    0.39435    0.17963   1.00
H2       0.91782    0.39035    0.18604   1.00
H2       0.91760    0.39416    0.29646   1.00
H2       0.91621    0.35212    0.26721   1.00
H2       0.94761    0.39085    0.25444   1.00
H2       0.90553    0.53656    0.22073   1.00
H2       0.94739    0.52381    0.19337   1.00
H2       0.90117    0.50834    0.17811   1.00
H2       0.98310    0.49044    0.24487   1.00
H2       0.94736    0.50622    0.27842   1.00
H2       0.96130    0.45657    0.27638   1.00
C4       0.47916    0.25281    0.25116   1.00
C4       0.52088    0.25215    0.25145   1.00
C3       0.45636    0.27276    0.27943   1.00
C3       0.54384    0.26831    0.28194   1.00
C3       0.45877    0.23198    0.22141   1.00
C3       0.54114    0.23451    0.21962   1.00
C2       0.39488    0.25115    0.24966   1.00
C2       0.60512    0.24885    0.25034   1.00
C3       0.41538    0.27178    0.27886   1.00
C3       0.58481    0.26704    0.28124   1.00
C3       0.41742    0.23196    0.22091   1.00
C3       0.58238    0.23206    0.22029   1.00
H1       0.46885    0.28869    0.30119   1.00
H1       0.53148    0.28126    0.30566   1.00
C5       0.47980    0.21144    0.19225   1.00
C5       0.52020    0.21911    0.18745   1.00
H1       0.40045    0.28652    0.30023   1.00
H1       0.59990    0.27950    0.30392   1.00
H1       0.40320    0.21779    0.19877   1.00
H1       0.59632    0.21716    0.19853   1.00
O3       0.46039    0.18623    0.16766   1.00
O3       0.53901    0.20906    0.15321   1.00
Si1      0.45753    0.13994    0.17862   1.00
Si1      0.54721    0.24288    0.12071   1.00
C6       0.42462    0.12657    0.14131   1.00
C6       0.50402    0.11936    0.17075   1.00
C6       0.43747    0.13125    0.22528   1.00
C6       0.53307    0.29126    0.13169   1.00
C6       0.59802    0.24095    0.11448   1.00
C6       0.52523    0.22748    0.07686   1.00
C6       0.38806    0.15362    0.13630   1.00
H2       0.44209    0.13105    0.11504   1.00
C6       0.40853    0.08379    0.13823   1.00
H2       0.51642    0.13919    0.14915   1.00
C6       0.53366    0.11876    0.20547   1.00
C6       0.50664    0.07774    0.15212   1.00
H2       0.41169    0.15004    0.22510   1.00
C6       0.42228    0.08901    0.23401   1.00
C6       0.46151    0.14248    0.26270   1.00
C6       0.48929    0.29903    0.14196   1.00
C6       0.55775    0.31579    0.16134   1.00
H2       0.53788    0.30614    0.10394   1.00
H2       0.60949    0.25253    0.14183   1.00
C6       0.61622    0.19922    0.11041   1.00
C6       0.61607    0.26634    0.08114   1.00
H2       0.54625    0.20700    0.06446   1.00
C6       0.48664    0.20373    0.08089   1.00
C6       0.51756    0.25881    0.04448   1.00
H2       0.39654    0.18403    0.13186   1.00
H2       0.36910    0.15230    0.16191   1.00
H2       0.37083    0.14514    0.11082   1.00
H2       0.40392    0.07604    0.10762   1.00
H2       0.42822    0.06224    0.15063   1.00
H2       0.38036    0.08039    0.15275   1.00
H2       0.56328    0.11323    0.19494   1.00
H2       0.53468    0.14655    0.22079   1.00
H2       0.52648    0.09582    0.22637   1.00
H2       0.49138    0.07651    0.12420   1.00
H2       0.53692    0.06963    0.14605   1.00
H2       0.49450    0.05563    0.17161   1.00
H2       0.44486    0.06726    0.22830   1.00
H2       0.41292    0.08565    0.26436   1.00
H2       0.39668    0.08213    0.21663   1.00
H2       0.48098    0.11901    0.27192   1.00
H2       0.47932    0.16832    0.25899   1.00
H2       0.44172    0.14835    0.28705   1.00
H2       0.48312    0.29297    0.17255   1.00
H2       0.48191    0.32965    0.13687   1.00
H2       0.46952    0.28165    0.12420   1.00
H2       0.54875    0.34641    0.16083   1.00
H2       0.55426    0.30565    0.19122   1.00
H2       0.58878    0.31551    0.15427   1.00
H2       0.64798    0.20058    0.11339   1.00
H2       0.60565    0.17963    0.13324   1.00
H2       0.60965    0.18604    0.08218   1.00
H2       0.60584    0.29646    0.08240   1.00
H2       0.64788    0.26721    0.08379   1.00
H2       0.60915    0.25444    0.05239   1.00
H2       0.46344    0.22073    0.09447   1.00
H2       0.47619    0.19337    0.05261   1.00
H2       0.49166    0.17811    0.09883   1.00
H2       0.50956    0.24487    0.01690   1.00
H2       0.49378    0.27842    0.05264   1.00
H2       0.54343    0.27638    0.03870   1.00
C4       1.02084    0.25281    0.24884   1.00
C4       0.97912    0.25215    0.24855   1.00
C3       1.04364    0.27276    0.22057   1.00
C3       0.95616    0.26831    0.21806   1.00
C3       1.04123    0.23198    0.27859   1.00
C3       0.95886    0.23451    0.28038   1.00
C2       1.10512    0.25115    0.25034   1.00
C2       0.89488    0.24885    0.24966   1.00
C3       1.08462    0.27178    0.22114   1.00
C3       0.91519    0.26704    0.21876   1.00
C3       1.08258    0.23196    0.27909   1.00
C3       0.91762    0.23206    0.27971   1.00
H1       1.03115    0.28869    0.19881   1.00
H1       0.96852    0.28126    0.19434   1.00
C5       1.02020    0.21144    0.30775   1.00
C5       0.97980    0.21911    0.31255   1.00
H1       1.09955    0.28652    0.19977   1.00
H1       0.90010    0.27950    0.19608   1.00
H1       1.09680    0.21779    0.30123   1.00
H1       0.90368    0.21716    0.30147   1.00
O3       1.03961    0.18623    0.33234   1.00
O3       0.96099    0.20906    0.34679   1.00
Si1      1.04247    0.13994    0.32138   1.00
Si1      0.95279    0.24288    0.37929   1.00
C6       1.07538    0.12657    0.35869   1.00
C6       0.99598    0.11936    0.32925   1.00
C6       1.06253    0.13125    0.27472   1.00
C6       0.96693    0.29126    0.36831   1.00
C6       0.90198    0.24095    0.38552   1.00
C6       0.97477    0.22748    0.42314   1.00
C6       1.11194    0.15362    0.36370   1.00
H2       1.05791    0.13105    0.38496   1.00
C6       1.09147    0.08379    0.36177   1.00
H2       0.98358    0.13919    0.35085   1.00
C6       0.96634    0.11876    0.29453   1.00
C6       0.99336    0.07774    0.34788   1.00
H2       1.08831    0.15004    0.27490   1.00
C6       1.07772    0.08901    0.26599   1.00
C6       1.03849    0.14248    0.23730   1.00
C6       1.01071    0.29903    0.35804   1.00
C6       0.94225    0.31579    0.33866   1.00
H2       0.96212    0.30614    0.39606   1.00
H2       0.89051    0.25253    0.35817   1.00
C6       0.88378    0.19922    0.38959   1.00
C6       0.88393    0.26634    0.41886   1.00
H2       0.95375    0.20700    0.43554   1.00
C6       1.01336    0.20373    0.41911   1.00
C6       0.98244    0.25881    0.45552   1.00
H2       1.10346    0.18403    0.36814   1.00
H2       1.13090    0.15230    0.33809   1.00
H2       1.12917    0.14514    0.38918   1.00
H2       1.09608    0.07604    0.39238   1.00
H2       1.07178    0.06224    0.34937   1.00
H2       1.11964    0.08039    0.34725   1.00
H2       0.93672    0.11323    0.30506   1.00
H2       0.96532    0.14655    0.27921   1.00
H2       0.97352    0.09582    0.27363   1.00
H2       1.00862    0.07651    0.37580   1.00
H2       0.96308    0.06963    0.35395   1.00
H2       1.00550    0.05563    0.32839   1.00
H2       1.05514    0.06726    0.27170   1.00
H2       1.08708    0.08565    0.23564   1.00
H2       1.10332    0.08213    0.28337   1.00
H2       1.01902    0.11901    0.22808   1.00
H2       1.02068    0.16832    0.24101   1.00
H2       1.05828    0.14835    0.21295   1.00
H2       1.01688    0.29297    0.32745   1.00
H2       1.01809    0.32965    0.36313   1.00
H2       1.03048    0.28165    0.37580   1.00
H2       0.95125    0.34641    0.33917   1.00
H2       0.94574    0.30565    0.30878   1.00
H2       0.91122    0.31551    0.34573   1.00
H2       0.85202    0.20058    0.38661   1.00
H2       0.89435    0.17963    0.36676   1.00
H2       0.89035    0.18604    0.41782   1.00
H2       0.89416    0.29646    0.41760   1.00
H2       0.85212    0.26721    0.41621   1.00
H2       0.89085    0.25444    0.44761   1.00
H2       1.03656    0.22073    0.40553   1.00
H2       1.02381    0.19337    0.44739   1.00
H2       1.00834    0.17811    0.40117   1.00
H2       0.99044    0.24487    0.48310   1.00
H2       1.00622    0.27842    0.44736   1.00
H2       0.95657    0.27638    0.46130   1.00
C4       0.75116    -0.02084   0.25281   1.00
C4       0.75145    0.02088    0.25215   1.00
C3       0.77943    -0.04364   0.27276   1.00
C3       0.78194    0.04384    0.26831   1.00
C3       0.72141    -0.04123   0.23198   1.00
C3       0.71962    0.04114    0.23451   1.00
C2       0.74966    -0.10512   0.25115   1.00
C2       0.75034    0.10512    0.24885   1.00
C3       0.77886    -0.08462   0.27178   1.00
C3       0.78124    0.08481    0.26704   1.00
C3       0.72091    -0.08258   0.23196   1.00
C3       0.72029    0.08238    0.23206   1.00
H1       0.80119    -0.03115   0.28869   1.00
H1       0.80566    0.03148    0.28126   1.00
C5       0.69225    -0.02020   0.21144   1.00
C5       0.68745    0.02020    0.21911   1.00
H1       0.80023    -0.09955   0.28652   1.00
H1       0.80392    0.09990    0.27950   1.00
H1       0.69877    -0.09680   0.21779   1.00
H1       0.69853    0.09632    0.21716   1.00
O3       0.66766    -0.03961   0.18623   1.00
O3       0.65321    0.03901    0.20906   1.00
Si1      0.67862    -0.04247   0.13994   1.00
Si1      0.62071    0.04721    0.24288   1.00
C6       0.64131    -0.07538   0.12657   1.00
C6       0.67075    0.00402    0.11936   1.00
C6       0.72528    -0.06253   0.13125   1.00
C6       0.63169    0.03307    0.29126   1.00
C6       0.61448    0.09802    0.24095   1.00
C6       0.57686    0.02523    0.22748   1.00
C6       0.63630    -0.11194   0.15362   1.00
H2       0.61504    -0.05791   0.13105   1.00
C6       0.63823    -0.09147   0.08379   1.00
H2       0.64915    0.01642    0.13919   1.00
C6       0.70547    0.03366    0.11876   1.00
C6       0.65212    0.00664    0.07774   1.00
H2       0.72510    -0.08831   0.15004   1.00
C6       0.73401    -0.07772   0.08901   1.00
C6       0.76270    -0.03849   0.14248   1.00
C6       0.64196    -0.01071   0.29903   1.00
C6       0.66134    0.05775    0.31579   1.00
H2       0.60394    0.03788    0.30614   1.00
H2       0.64183    0.10949    0.25253   1.00
C6       0.61041    0.11622    0.19922   1.00
C6       0.58114    0.11607    0.26634   1.00
H2       0.56446    0.04625    0.20700   1.00
C6       0.58089    -0.01336   0.20373   1.00
C6       0.54448    0.01756    0.25881   1.00
H2       0.63186    -0.10346   0.18403   1.00
H2       0.66191    -0.13090   0.15230   1.00
H2       0.61082    -0.12917   0.14514   1.00
H2       0.60762    -0.09608   0.07604   1.00
H2       0.65063    -0.07178   0.06224   1.00
H2       0.65275    -0.11964   0.08039   1.00
H2       0.69494    0.06328    0.11323   1.00
H2       0.72079    0.03468    0.14655   1.00
H2       0.72637    0.02648    0.09582   1.00
H2       0.62420    -0.00862   0.07651   1.00
H2       0.64605    0.03692    0.06963   1.00
H2       0.67161    -0.00550   0.05563   1.00
H2       0.72830    -0.05514   0.06726   1.00
H2       0.76436    -0.08708   0.08565   1.00
H2       0.71663    -0.10332   0.08213   1.00
H2       0.77192    -0.01902   0.11901   1.00
H2       0.75899    -0.02068   0.16832   1.00
H2       0.78705    -0.05828   0.14835   1.00
H2       0.67255    -0.01688   0.29297   1.00
H2       0.63687    -0.01809   0.32965   1.00
H2       0.62420    -0.03048   0.28165   1.00
H2       0.66083    0.04875    0.34641   1.00
H2       0.69122    0.05426    0.30565   1.00
H2       0.65427    0.08878    0.31551   1.00
H2       0.61339    0.14798    0.20058   1.00
H2       0.63324    0.10565    0.17963   1.00
H2       0.58218    0.10965    0.18604   1.00
H2       0.58240    0.10584    0.29646   1.00
H2       0.58379    0.14788    0.26721   1.00
H2       0.55239    0.10915    0.25444   1.00
H2       0.59447    -0.03656   0.22073   1.00
H2       0.55261    -0.02381   0.19337   1.00
H2       0.59883    -0.00834   0.17811   1.00
H2       0.51690    0.00956    0.24487   1.00
H2       0.55264    -0.00622   0.27842   1.00
H2       0.53870    0.04343    0.27638   1.00
C4       0.75281    0.25116    -0.02084   1.00
C4       0.75215    0.25145    0.02088   1.00
C3       0.77276    0.27943    -0.04364   1.00
C3       0.76831    0.28194    0.04384   1.00
C3       0.73198    0.22141    -0.04123   1.00
C3       0.73451    0.21962    0.04114   1.00
C2       0.75115    0.24966    -0.10512   1.00
C2       0.74885    0.25034    0.10512   1.00
C3       0.77178    0.27886    -0.08462   1.00
C3       0.76704    0.28124    0.08481   1.00
C3       0.73196    0.22091    -0.08258   1.00
C3       0.73206    0.22029    0.08238   1.00
H1       0.78869    0.30119    -0.03115   1.00
H1       0.78126    0.30566    0.03148   1.00
C5       0.71144    0.19225    -0.02020   1.00
C5       0.71911    0.18745    0.02020   1.00
H1       0.78652    0.30023    -0.09955   1.00
H1       0.77950    0.30392    0.09990   1.00
H1       0.71779    0.19877    -0.09680   1.00
H1       0.71716    0.19853    0.09632   1.00
O3       0.68623    0.16766    -0.03961   1.00
O3       0.70906    0.15321    0.03901   1.00
Si1      0.63994    0.17862    -0.04247   1.00
Si1      0.74288    0.12071    0.04721   1.00
C6       0.62657    0.14131    -0.07538   1.00
C6       0.61936    0.17075    0.00402   1.00
C6       0.63125    0.22528    -0.06253   1.00
C6       0.79126    0.13169    0.03307   1.00
C6       0.74095    0.11448    0.09802   1.00
C6       0.72748    0.07686    0.02523   1.00
C6       0.65362    0.13630    -0.11194   1.00
H2       0.63105    0.11504    -0.05791   1.00
C6       0.58379    0.13823    -0.09147   1.00
H2       0.63919    0.14915    0.01642   1.00
C6       0.61876    0.20547    0.03366   1.00
C6       0.57774    0.15212    0.00664   1.00
H2       0.65004    0.22510    -0.08831   1.00
C6       0.58901    0.23401    -0.07772   1.00
C6       0.64248    0.26270    -0.03849   1.00
C6       0.79903    0.14196    -0.01071   1.00
C6       0.81579    0.16134    0.05775   1.00
H2       0.80614    0.10394    0.03788   1.00
H2       0.75253    0.14183    0.10949   1.00
C6       0.69922    0.11041    0.11622   1.00
C6       0.76634    0.08114    0.11607   1.00
H2       0.70700    0.06446    0.04625   1.00
C6       0.70373    0.08089    -0.01336   1.00
C6       0.75881    0.04448    0.01756   1.00
H2       0.68403    0.13186    -0.10346   1.00
H2       0.65230    0.16191    -0.13090   1.00
H2       0.64514    0.11082    -0.12917   1.00
H2       0.57604    0.10762    -0.09608   1.00
H2       0.56224    0.15063    -0.07178   1.00
H2       0.58039    0.15275    -0.11964   1.00
H2       0.61323    0.19494    0.06328   1.00
H2       0.64655    0.22079    0.03468   1.00
H2       0.59582    0.22637    0.02648   1.00
H2       0.57651    0.12420    -0.00862   1.00
H2       0.56963    0.14605    0.03692   1.00
H2       0.55563    0.17161    -0.00550   1.00
H2       0.56726    0.22830    -0.05514   1.00
H2       0.58565    0.26436    -0.08708   1.00
H2       0.58213    0.21663    -0.10332   1.00
H2       0.61901    0.27192    -0.01902   1.00
H2       0.66832    0.25899    -0.02068   1.00
H2       0.64835    0.28705    -0.05828   1.00
H2       0.79297    0.17255    -0.01688   1.00
H2       0.82965    0.13687    -0.01809   1.00
H2       0.78165    0.12420    -0.03048   1.00
H2       0.84641    0.16083    0.04875   1.00
H2       0.80565    0.19122    0.05426   1.00
H2       0.81551    0.15427    0.08878   1.00
H2       0.70058    0.11339    0.14798   1.00
H2       0.67963    0.13324    0.10565   1.00
H2       0.68604    0.08218    0.10965   1.00
H2       0.79646    0.08240    0.10584   1.00
H2       0.76721    0.08379    0.14788   1.00
H2       0.75444    0.05239    0.10915   1.00
H2       0.72073    0.09447    -0.03656   1.00
H2       0.69337    0.05261    -0.02381   1.00
H2       0.67811    0.09883    -0.00834   1.00
H2       0.74487    0.01690    0.00956   1.00
H2       0.77842    0.05264    -0.00622   1.00
H2       0.77638    0.03870    0.04343   1.00
