data_IRMOF10_SG202_Ligand7_label_c.

_audit_creation_method             'generated by an auxiliary program of Tobunporous'

_symmetry_space_group_name_H-M     'P 1'
_symmetry_Int_Tables_number        1
_symmetry_cell_setting             triclinic

_cell_length_a                    34.2800
_cell_length_b                    34.2800
_cell_length_c                    34.2800
_cell_angle_alpha                 90.0000
_cell_angle_beta                  90.0000
_cell_angle_gamma                 90.0000

loop_
_atom_site_label
_atom_site_fract_x
_atom_site_fract_y
_atom_site_fract_z
_atom_site_occupancy
O1       0.75000    0.75000    0.75000   1.00
Zn1      0.71720    0.78280    0.78280   1.00
Zn1      0.78280    0.71720    0.78280   1.00
Zn1      0.78280    0.78280    0.71720   1.00
Zn1      0.71720    0.71720    0.71720   1.00
O2       0.72650    0.77350    0.83820   1.00
O2       0.72650    0.83820    0.77350   1.00
O2       0.66180    0.77350    0.77350   1.00
O2       0.77350    0.72650    0.83820   1.00
O2       0.83820    0.72650    0.77350   1.00
O2       0.77350    0.66180    0.77350   1.00
O2       0.77350    0.83820    0.72650   1.00
O2       0.83820    0.77350    0.72650   1.00
O2       0.77350    0.77350    0.66180   1.00
O2       0.66180    0.72650    0.72650   1.00
O2       0.72650    0.66180    0.72650   1.00
O2       0.72650    0.72650    0.66180   1.00
C1       0.75000    0.75000    0.85520   1.00
C1       0.75000    0.85520    0.75000   1.00
C1       0.64480    0.75000    0.75000   1.00
C1       0.85520    0.75000    0.75000   1.00
C1       0.75000    0.64480    0.75000   1.00
C1       0.75000    0.75000    0.64480   1.00
O1       0.25000    0.25000    0.75000   1.00
Zn1      0.21720    0.28280    0.78280   1.00
Zn1      0.28280    0.21720    0.78280   1.00
Zn1      0.28280    0.28280    0.71720   1.00
Zn1      0.21720    0.21720    0.71720   1.00
O2       0.22650    0.27350    0.83820   1.00
O2       0.22650    0.33820    0.77350   1.00
O2       0.16180    0.27350    0.77350   1.00
O2       0.27350    0.22650    0.83820   1.00
O2       0.33820    0.22650    0.77350   1.00
O2       0.27350    0.16180    0.77350   1.00
O2       0.27350    0.33820    0.72650   1.00
O2       0.33820    0.27350    0.72650   1.00
O2       0.27350    0.27350    0.66180   1.00
O2       0.16180    0.22650    0.72650   1.00
O2       0.22650    0.16180    0.72650   1.00
O2       0.22650    0.22650    0.66180   1.00
C1       0.25000    0.25000    0.85520   1.00
C1       0.25000    0.35520    0.75000   1.00
C1       0.14480    0.25000    0.75000   1.00
C1       0.35520    0.25000    0.75000   1.00
C1       0.25000    0.14480    0.75000   1.00
C1       0.25000    0.25000    0.64480   1.00
O1       0.25000    0.75000    0.25000   1.00
Zn1      0.21720    0.78280    0.28280   1.00
Zn1      0.28280    0.71720    0.28280   1.00
Zn1      0.28280    0.78280    0.21720   1.00
Zn1      0.21720    0.71720    0.21720   1.00
O2       0.22650    0.77350    0.33820   1.00
O2       0.22650    0.83820    0.27350   1.00
O2       0.16180    0.77350    0.27350   1.00
O2       0.27350    0.72650    0.33820   1.00
O2       0.33820    0.72650    0.27350   1.00
O2       0.27350    0.66180    0.27350   1.00
O2       0.27350    0.83820    0.22650   1.00
O2       0.33820    0.77350    0.22650   1.00
O2       0.27350    0.77350    0.16180   1.00
O2       0.16180    0.72650    0.22650   1.00
O2       0.22650    0.66180    0.22650   1.00
O2       0.22650    0.72650    0.16180   1.00
C1       0.25000    0.75000    0.35520   1.00
C1       0.25000    0.85520    0.25000   1.00
C1       0.14480    0.75000    0.25000   1.00
C1       0.35520    0.75000    0.25000   1.00
C1       0.25000    0.64480    0.25000   1.00
C1       0.25000    0.75000    0.14480   1.00
O1       0.75000    0.25000    0.25000   1.00
Zn1      0.71720    0.28280    0.28280   1.00
Zn1      0.78280    0.21720    0.28280   1.00
Zn1      0.78280    0.28280    0.21720   1.00
Zn1      0.71720    0.21720    0.21720   1.00
O2       0.72650    0.27350    0.33820   1.00
O2       0.72650    0.33820    0.27350   1.00
O2       0.66180    0.27350    0.27350   1.00
O2       0.77350    0.22650    0.33820   1.00
O2       0.83820    0.22650    0.27350   1.00
O2       0.77350    0.16180    0.27350   1.00
O2       0.77350    0.33820    0.22650   1.00
O2       0.83820    0.27350    0.22650   1.00
O2       0.77350    0.27350    0.16180   1.00
O2       0.66180    0.22650    0.22650   1.00
O2       0.72650    0.16180    0.22650   1.00
O2       0.72650    0.22650    0.16180   1.00
C1       0.75000    0.25000    0.35520   1.00
C1       0.75000    0.35520    0.25000   1.00
C1       0.64480    0.25000    0.25000   1.00
C1       0.85520    0.25000    0.25000   1.00
C1       0.75000    0.14480    0.25000   1.00
C1       0.75000    0.25000    0.14480   1.00
O1       0.25000    0.25000    0.25000   1.00
Zn1      0.28280    0.21720    0.21720   1.00
Zn1      0.21720    0.28280    0.21720   1.00
Zn1      0.21720    0.21720    0.28280   1.00
Zn1      0.28280    0.28280    0.28280   1.00
O2       0.27350    0.22650    0.16180   1.00
O2       0.27350    0.16180    0.22650   1.00
O2       0.33820    0.22650    0.22650   1.00
O2       0.22650    0.27350    0.16180   1.00
O2       0.16180    0.27350    0.22650   1.00
O2       0.22650    0.33820    0.22650   1.00
O2       0.22650    0.16180    0.27350   1.00
O2       0.16180    0.22650    0.27350   1.00
O2       0.22650    0.22650    0.33820   1.00
O2       0.33820    0.27350    0.27350   1.00
O2       0.27350    0.33820    0.27350   1.00
O2       0.27350    0.27350    0.33820   1.00
C1       0.25000    0.25000    0.14480   1.00
C1       0.25000    0.14480    0.25000   1.00
C1       0.35520    0.25000    0.25000   1.00
C1       0.14480    0.25000    0.25000   1.00
C1       0.25000    0.35520    0.25000   1.00
C1       0.25000    0.25000    0.35520   1.00
O1       0.75000    0.75000    0.25000   1.00
Zn1      0.78280    0.71720    0.21720   1.00
Zn1      0.71720    0.78280    0.21720   1.00
Zn1      0.71720    0.71720    0.28280   1.00
Zn1      0.78280    0.78280    0.28280   1.00
O2       0.77350    0.72650    0.16180   1.00
O2       0.77350    0.66180    0.22650   1.00
O2       0.83820    0.72650    0.22650   1.00
O2       0.72650    0.77350    0.16180   1.00
O2       0.66180    0.77350    0.22650   1.00
O2       0.72650    0.83820    0.22650   1.00
O2       0.72650    0.66180    0.27350   1.00
O2       0.66180    0.72650    0.27350   1.00
O2       0.72650    0.72650    0.33820   1.00
O2       0.83820    0.77350    0.27350   1.00
O2       0.77350    0.83820    0.27350   1.00
O2       0.77350    0.77350    0.33820   1.00
C1       0.75000    0.75000    0.14480   1.00
C1       0.75000    0.64480    0.25000   1.00
C1       0.85520    0.75000    0.25000   1.00
C1       0.64480    0.75000    0.25000   1.00
C1       0.75000    0.85520    0.25000   1.00
C1       0.75000    0.75000    0.35520   1.00
O1       0.75000    0.25000    0.75000   1.00
Zn1      0.78280    0.21720    0.71720   1.00
Zn1      0.71720    0.28280    0.71720   1.00
Zn1      0.71720    0.21720    0.78280   1.00
Zn1      0.78280    0.28280    0.78280   1.00
O2       0.77350    0.22650    0.66180   1.00
O2       0.77350    0.16180    0.72650   1.00
O2       0.83820    0.22650    0.72650   1.00
O2       0.72650    0.27350    0.66180   1.00
O2       0.66180    0.27350    0.72650   1.00
O2       0.72650    0.33820    0.72650   1.00
O2       0.72650    0.16180    0.77350   1.00
O2       0.66180    0.22650    0.77350   1.00
O2       0.72650    0.22650    0.83820   1.00
O2       0.83820    0.27350    0.77350   1.00
O2       0.77350    0.33820    0.77350   1.00
O2       0.77350    0.27350    0.83820   1.00
C1       0.75000    0.25000    0.64480   1.00
C1       0.75000    0.14480    0.75000   1.00
C1       0.85520    0.25000    0.75000   1.00
C1       0.64480    0.25000    0.75000   1.00
C1       0.75000    0.35520    0.75000   1.00
C1       0.75000    0.25000    0.85520   1.00
O1       0.25000    0.75000    0.75000   1.00
Zn1      0.28280    0.71720    0.71720   1.00
Zn1      0.21720    0.78280    0.71720   1.00
Zn1      0.21720    0.71720    0.78280   1.00
Zn1      0.28280    0.78280    0.78280   1.00
O2       0.27350    0.72650    0.66180   1.00
O2       0.27350    0.66180    0.72650   1.00
O2       0.33820    0.72650    0.72650   1.00
O2       0.22650    0.77350    0.66180   1.00
O2       0.16180    0.77350    0.72650   1.00
O2       0.22650    0.83820    0.72650   1.00
O2       0.22650    0.66180    0.77350   1.00
O2       0.16180    0.72650    0.77350   1.00
O2       0.22650    0.72650    0.83820   1.00
O2       0.33820    0.77350    0.77350   1.00
O2       0.27350    0.83820    0.77350   1.00
O2       0.27350    0.77350    0.83820   1.00
C1       0.25000    0.75000    0.64480   1.00
C1       0.25000    0.64480    0.75000   1.00
C1       0.35520    0.75000    0.75000   1.00
C1       0.14480    0.75000    0.75000   1.00
C1       0.25000    0.85520    0.75000   1.00
C1       0.25000    0.75000    0.85520   1.00
C5       0.73348    0.87570    1.13218   1.00
H2       0.70819    0.86240    1.14745   1.00
H2       0.72094    0.89669    1.11090   1.00
C5       0.75939    0.89717    1.16194   1.00
C5       0.74271    0.93784    1.17123   1.00
H2       0.78947    0.90050    1.15015   1.00
O3       0.81761    0.77109    0.98000   1.00
C4       0.74972    0.74968    1.02100   1.00
C3c      0.73868    0.78282    1.04243   1.00
H1       0.72983    0.80901    1.02725   1.00
C3d      0.76062    0.71567    1.04135   1.00
C3       0.73938    0.78295    1.08354   1.00
O2       0.72368    0.81469    1.10248   1.00
C3       0.76207    0.71594    1.08227   1.00
H1       0.77194    0.68962    1.09657   1.00
C2       0.75140    0.74933    1.10439   1.00
C5       0.84561    0.74089    0.97879   1.00
H2       0.85467    0.73373    0.94838   1.00
H2       0.83418    0.71374    0.99266   1.00
C5       0.88139    0.75478    1.00129   1.00
H2       0.87214    0.76298    1.03137   1.00
H2       0.89277    0.78168    0.98698   1.00
C5       0.91301    0.72290    1.00262   1.00
H2       0.92219    0.71438    0.97268   1.00
H2       0.90212    0.69652    1.01811   1.00
C5       0.94923    0.73807    1.02445   1.00
C5       0.74298    0.65909    1.01105   1.00
C5       0.75334    0.84218    1.11070   1.00
H2       0.72269    0.67441    0.99088   1.00
H2       0.72622    0.64911    1.03712   1.00
H2       0.76671    0.85286    1.08300   1.00
H2       0.77732    0.82962    1.12895   1.00
H2       0.76066    0.88108    1.19030   1.00
H2       0.71698    0.61747    0.94247   1.00
H2       0.70336    0.59320    0.98763   1.00
C2       0.75243    0.74887    0.89605   1.00
C3       0.71747    0.74004    0.91597   1.00
O2       0.68711    0.72188    0.89674   1.00
C3       0.78550    0.75973    0.91826   1.00
H1       0.81241    0.76764    0.90385   1.00
C3a      0.71658    0.74124    0.95713   1.00
H1       0.69025    0.73224    0.97202   1.00
C3b      0.78488    0.75968    0.95922   1.00
C4       0.75028    0.75032    0.97900   1.00
O3       0.77456    0.68328    1.02167   1.00
C5       0.65788    0.74926    0.88720   1.00
H2       0.64601    0.76367    0.91391   1.00
C5       0.62529    0.72694    0.86674   1.00
H2       0.66948    0.77220    0.86726   1.00
H2       0.60724    0.71210    0.88932   1.00
H2       0.63918    0.70346    0.84907   1.00
C5       0.59967    0.75320    0.84082   1.00
H2       0.58856    0.77819    0.85824   1.00
C5       0.56466    0.73023    0.82453   1.00
H2       0.61631    0.76439    0.81507   1.00
C5       0.75974    0.62357    0.99017   1.00
H2       0.77450    0.60471    1.01215   1.00
H2       0.78268    0.63378    0.96952   1.00
C5       0.72814    0.60059    0.96800   1.00
C5       0.74533    0.56219    0.95225   1.00
H2       0.71762    0.93485    1.19286   1.00
C5       0.77494    0.96351    1.18912   1.00
H2       0.73159    0.95191    1.14323   1.00
C5       0.97681    0.70375    1.03337   1.00
H2       0.96505    0.76037    1.00551   1.00
H2       0.93981    0.75241    1.05293   1.00
C5       0.53590    0.75866    0.80497   1.00
H2       0.57537    0.70813    0.80211   1.00
H2       0.54934    0.71429    0.84937   1.00
H2       0.77365    0.56857    0.93602   1.00
H2       0.75149    0.54158    0.97761   1.00
C5       0.71596    0.54304    0.92417   1.00
H2       0.79914    0.94414    1.20116   1.00
H2       0.78741    0.98357    1.16571   1.00
H2       0.76212    0.98184    1.21374   1.00
H2       0.96565    0.67633    1.01820   1.00
H2       1.00734    0.71089    1.02229   1.00
H2       0.97785    0.69860    1.06621   1.00
H2       0.55288    0.78230    0.78889   1.00
H2       0.51686    0.74204    0.78336   1.00
H2       0.51666    0.77268    0.82819   1.00
H2       0.72223    0.55302    0.89307   1.00
H2       0.71884    0.50996    0.92598   1.00
H2       0.68507    0.55196    0.93266   1.00
C5       0.87570    1.13218    0.73348   1.00
H2       0.86240    1.14745    0.70819   1.00
H2       0.89669    1.11090    0.72094   1.00
C5       0.89717    1.16194    0.75939   1.00
C5       0.93784    1.17123    0.74271   1.00
H2       0.90050    1.15015    0.78947   1.00
O3       0.77109    0.98000    0.81761   1.00
C4       0.74968    1.02100    0.74972   1.00
C3c      0.78282    1.04243    0.73868   1.00
H1       0.80901    1.02725    0.72983   1.00
C3d      0.71567    1.04135    0.76062   1.00
C3       0.78295    1.08354    0.73938   1.00
O2       0.81469    1.10248    0.72368   1.00
C3       0.71594    1.08227    0.76207   1.00
H1       0.68962    1.09657    0.77194   1.00
C2       0.74933    1.10439    0.75140   1.00
C5       0.74089    0.97879    0.84561   1.00
H2       0.73373    0.94838    0.85467   1.00
H2       0.71374    0.99266    0.83418   1.00
C5       0.75478    1.00129    0.88139   1.00
H2       0.76298    1.03137    0.87214   1.00
H2       0.78168    0.98698    0.89277   1.00
C5       0.72290    1.00262    0.91301   1.00
H2       0.71438    0.97268    0.92219   1.00
H2       0.69652    1.01811    0.90212   1.00
C5       0.73807    1.02445    0.94923   1.00
C5       0.65909    1.01105    0.74298   1.00
C5       0.84218    1.11070    0.75334   1.00
H2       0.67441    0.99088    0.72269   1.00
H2       0.64911    1.03712    0.72622   1.00
H2       0.85286    1.08300    0.76671   1.00
H2       0.82962    1.12895    0.77732   1.00
H2       0.88108    1.19030    0.76066   1.00
H2       0.61747    0.94247    0.71698   1.00
H2       0.59320    0.98763    0.70336   1.00
C2       0.74887    0.89605    0.75243   1.00
C3       0.74004    0.91597    0.71747   1.00
O2       0.72188    0.89674    0.68711   1.00
C3       0.75973    0.91826    0.78550   1.00
H1       0.76764    0.90385    0.81241   1.00
C3a      0.74124    0.95713    0.71658   1.00
H1       0.73224    0.97202    0.69025   1.00
C3b      0.75968    0.95922    0.78488   1.00
C4       0.75032    0.97900    0.75028   1.00
O3       0.68328    1.02167    0.77456   1.00
C5       0.74926    0.88720    0.65788   1.00
H2       0.76367    0.91391    0.64601   1.00
C5       0.72694    0.86674    0.62529   1.00
H2       0.77220    0.86726    0.66948   1.00
H2       0.71210    0.88932    0.60724   1.00
H2       0.70346    0.84907    0.63918   1.00
C5       0.75320    0.84082    0.59967   1.00
H2       0.77819    0.85824    0.58856   1.00
C5       0.73023    0.82453    0.56466   1.00
H2       0.76439    0.81507    0.61631   1.00
C5       0.62357    0.99017    0.75974   1.00
H2       0.60471    1.01215    0.77450   1.00
H2       0.63378    0.96952    0.78268   1.00
C5       0.60059    0.96800    0.72814   1.00
C5       0.56219    0.95225    0.74533   1.00
H2       0.93485    1.19286    0.71762   1.00
C5       0.96351    1.18912    0.77494   1.00
H2       0.95191    1.14323    0.73159   1.00
C5       0.70375    1.03337    0.97681   1.00
H2       0.76037    1.00551    0.96505   1.00
H2       0.75241    1.05293    0.93981   1.00
C5       0.75866    0.80497    0.53590   1.00
H2       0.70813    0.80211    0.57537   1.00
H2       0.71429    0.84937    0.54934   1.00
H2       0.56857    0.93602    0.77365   1.00
H2       0.54158    0.97761    0.75149   1.00
C5       0.54304    0.92417    0.71596   1.00
H2       0.94414    1.20116    0.79914   1.00
H2       0.98357    1.16571    0.78741   1.00
H2       0.98184    1.21374    0.76212   1.00
H2       0.67633    1.01820    0.96565   1.00
H2       0.71089    1.02229    1.00734   1.00
H2       0.69860    1.06621    0.97785   1.00
H2       0.78230    0.78889    0.55288   1.00
H2       0.74204    0.78336    0.51686   1.00
H2       0.77268    0.82819    0.51666   1.00
H2       0.55302    0.89307    0.72223   1.00
H2       0.50996    0.92598    0.71884   1.00
H2       0.55196    0.93266    0.68507   1.00
C5       0.36782    0.73348    0.62430   1.00
H2       0.35255    0.70819    0.63760   1.00
H2       0.38910    0.72094    0.60331   1.00
C5       0.33806    0.75939    0.60283   1.00
C5       0.32877    0.74271    0.56216   1.00
H2       0.34985    0.78947    0.59950   1.00
O3       0.52000    0.81761    0.72891   1.00
C4       0.47900    0.74972    0.75032   1.00
C3c      0.45757    0.73868    0.71718   1.00
H1       0.47275    0.72983    0.69099   1.00
C3d      0.45865    0.76062    0.78433   1.00
C3       0.41646    0.73938    0.71705   1.00
O2       0.39752    0.72368    0.68531   1.00
C3       0.41773    0.76207    0.78406   1.00
H1       0.40343    0.77194    0.81038   1.00
C2       0.39561    0.75140    0.75067   1.00
C5       0.52121    0.84561    0.75911   1.00
H2       0.55162    0.85467    0.76627   1.00
H2       0.50734    0.83418    0.78626   1.00
C5       0.49871    0.88139    0.74522   1.00
H2       0.46863    0.87214    0.73702   1.00
H2       0.51302    0.89277    0.71832   1.00
C5       0.49738    0.91301    0.77710   1.00
H2       0.52732    0.92219    0.78562   1.00
H2       0.48189    0.90212    0.80348   1.00
C5       0.47555    0.94923    0.76193   1.00
C5       0.48895    0.74298    0.84091   1.00
C5       0.38930    0.75334    0.65782   1.00
H2       0.50912    0.72269    0.82559   1.00
H2       0.46288    0.72622    0.85089   1.00
H2       0.41700    0.76671    0.64714   1.00
H2       0.37105    0.77732    0.67038   1.00
H2       0.30970    0.76066    0.61892   1.00
H2       0.55753    0.71698    0.88253   1.00
H2       0.51237    0.70336    0.90680   1.00
C2       0.60395    0.75243    0.75113   1.00
C3       0.58403    0.71747    0.75996   1.00
O2       0.60326    0.68711    0.77812   1.00
C3       0.58174    0.78550    0.74027   1.00
H1       0.59615    0.81241    0.73236   1.00
C3a      0.54287    0.71658    0.75876   1.00
H1       0.52798    0.69025    0.76776   1.00
C3b      0.54078    0.78488    0.74032   1.00
C4       0.52100    0.75028    0.74968   1.00
O3       0.47833    0.77456    0.81672   1.00
C5       0.61280    0.65788    0.75074   1.00
H2       0.58609    0.64601    0.73633   1.00
C5       0.63326    0.62529    0.77306   1.00
H2       0.63274    0.66948    0.72780   1.00
H2       0.61068    0.60724    0.78790   1.00
H2       0.65093    0.63918    0.79654   1.00
C5       0.65918    0.59967    0.74680   1.00
H2       0.64176    0.58856    0.72181   1.00
C5       0.67547    0.56466    0.76977   1.00
H2       0.68493    0.61631    0.73561   1.00
C5       0.50983    0.75974    0.87643   1.00
H2       0.48785    0.77450    0.89529   1.00
H2       0.53048    0.78268    0.86622   1.00
C5       0.53200    0.72814    0.89941   1.00
C5       0.54775    0.74533    0.93781   1.00
H2       0.30714    0.71762    0.56515   1.00
C5       0.31088    0.77494    0.53649   1.00
H2       0.35677    0.73159    0.54809   1.00
C5       0.46663    0.97681    0.79625   1.00
H2       0.49449    0.96505    0.73963   1.00
H2       0.44707    0.93981    0.74759   1.00
C5       0.69503    0.53590    0.74134   1.00
H2       0.69789    0.57537    0.79187   1.00
H2       0.65063    0.54934    0.78571   1.00
H2       0.56398    0.77365    0.93143   1.00
H2       0.52239    0.75149    0.95842   1.00
C5       0.57583    0.71596    0.95696   1.00
H2       0.29884    0.79914    0.55586   1.00
H2       0.33429    0.78741    0.51643   1.00
H2       0.28626    0.76212    0.51816   1.00
H2       0.48180    0.96565    0.82367   1.00
H2       0.47771    1.00734    0.78911   1.00
H2       0.43379    0.97785    0.80140   1.00
H2       0.71111    0.55288    0.71770   1.00
H2       0.71664    0.51686    0.75796   1.00
H2       0.67181    0.51666    0.72732   1.00
H2       0.60693    0.72223    0.94698   1.00
H2       0.57402    0.71884    0.99004   1.00
H2       0.56734    0.68507    0.94804   1.00
C5       1.13218    0.73348    0.87570   1.00
H2       1.14745    0.70819    0.86240   1.00
H2       1.11090    0.72094    0.89669   1.00
C5       1.16194    0.75939    0.89717   1.00
C5       1.17123    0.74271    0.93784   1.00
H2       1.15015    0.78947    0.90050   1.00
O3       0.98000    0.81761    0.77109   1.00
C4       1.02100    0.74972    0.74968   1.00
C3c      1.04243    0.73868    0.78282   1.00
H1       1.02725    0.72983    0.80901   1.00
C3d      1.04135    0.76062    0.71567   1.00
C3       1.08354    0.73938    0.78295   1.00
O2       1.10248    0.72368    0.81469   1.00
C3       1.08227    0.76207    0.71594   1.00
H1       1.09657    0.77194    0.68962   1.00
C2       1.10439    0.75140    0.74933   1.00
C5       0.97879    0.84561    0.74089   1.00
H2       0.94838    0.85467    0.73373   1.00
H2       0.99266    0.83418    0.71374   1.00
C5       1.00129    0.88139    0.75478   1.00
H2       1.03137    0.87214    0.76298   1.00
H2       0.98698    0.89277    0.78168   1.00
C5       1.00262    0.91301    0.72290   1.00
H2       0.97268    0.92219    0.71438   1.00
H2       1.01811    0.90212    0.69652   1.00
C5       1.02445    0.94923    0.73807   1.00
C5       1.01105    0.74298    0.65909   1.00
C5       1.11070    0.75334    0.84218   1.00
H2       0.99088    0.72269    0.67441   1.00
H2       1.03712    0.72622    0.64911   1.00
H2       1.08300    0.76671    0.85286   1.00
H2       1.12895    0.77732    0.82962   1.00
H2       1.19030    0.76066    0.88108   1.00
H2       0.94247    0.71698    0.61747   1.00
H2       0.98763    0.70336    0.59320   1.00
C2       0.89605    0.75243    0.74887   1.00
C3       0.91597    0.71747    0.74004   1.00
O2       0.89674    0.68711    0.72188   1.00
C3       0.91826    0.78550    0.75973   1.00
H1       0.90385    0.81241    0.76764   1.00
C3a      0.95713    0.71658    0.74124   1.00
H1       0.97202    0.69025    0.73224   1.00
C3b      0.95922    0.78488    0.75968   1.00
C4       0.97900    0.75028    0.75032   1.00
O3       1.02167    0.77456    0.68328   1.00
C5       0.88720    0.65788    0.74926   1.00
H2       0.91391    0.64601    0.76367   1.00
C5       0.86674    0.62529    0.72694   1.00
H2       0.86726    0.66948    0.77220   1.00
H2       0.88932    0.60724    0.71210   1.00
H2       0.84907    0.63918    0.70346   1.00
C5       0.84082    0.59967    0.75320   1.00
H2       0.85824    0.58856    0.77819   1.00
C5       0.82453    0.56466    0.73023   1.00
H2       0.81507    0.61631    0.76439   1.00
C5       0.99017    0.75974    0.62357   1.00
H2       1.01215    0.77450    0.60471   1.00
H2       0.96952    0.78268    0.63378   1.00
C5       0.96800    0.72814    0.60059   1.00
C5       0.95225    0.74533    0.56219   1.00
H2       1.19286    0.71762    0.93485   1.00
C5       1.18912    0.77494    0.96351   1.00
H2       1.14323    0.73159    0.95191   1.00
C5       1.03337    0.97681    0.70375   1.00
H2       1.00551    0.96505    0.76037   1.00
H2       1.05293    0.93981    0.75241   1.00
C5       0.80497    0.53590    0.75866   1.00
H2       0.80211    0.57537    0.70813   1.00
H2       0.84937    0.54934    0.71429   1.00
H2       0.93602    0.77365    0.56857   1.00
H2       0.97761    0.75149    0.54158   1.00
C5       0.92417    0.71596    0.54304   1.00
H2       1.20116    0.79914    0.94414   1.00
H2       1.16571    0.78741    0.98357   1.00
H2       1.21374    0.76212    0.98184   1.00
H2       1.01820    0.96565    0.67633   1.00
H2       1.02229    1.00734    0.71089   1.00
H2       1.06621    0.97785    0.69860   1.00
H2       0.78889    0.55288    0.78230   1.00
H2       0.78336    0.51686    0.74204   1.00
H2       0.82819    0.51666    0.77268   1.00
H2       0.89307    0.72223    0.55302   1.00
H2       0.92598    0.71884    0.50996   1.00
H2       0.93266    0.68507    0.55196   1.00
C5       0.62430    0.36782    0.73348   1.00
H2       0.63760    0.35255    0.70819   1.00
H2       0.60331    0.38910    0.72094   1.00
C5       0.60283    0.33806    0.75939   1.00
C5       0.56216    0.32877    0.74271   1.00
H2       0.59950    0.34985    0.78947   1.00
O3       0.72891    0.52000    0.81761   1.00
C4       0.75032    0.47900    0.74972   1.00
C3c      0.71718    0.45757    0.73868   1.00
H1       0.69099    0.47275    0.72983   1.00
C3d      0.78433    0.45865    0.76062   1.00
C3       0.71705    0.41646    0.73938   1.00
O2       0.68531    0.39752    0.72368   1.00
C3       0.78406    0.41773    0.76207   1.00
H1       0.81038    0.40343    0.77194   1.00
C2       0.75067    0.39561    0.75140   1.00
C5       0.75911    0.52121    0.84561   1.00
H2       0.76627    0.55162    0.85467   1.00
H2       0.78626    0.50734    0.83418   1.00
C5       0.74522    0.49871    0.88139   1.00
H2       0.73702    0.46863    0.87214   1.00
H2       0.71832    0.51302    0.89277   1.00
C5       0.77710    0.49738    0.91301   1.00
H2       0.78562    0.52732    0.92219   1.00
H2       0.80348    0.48189    0.90212   1.00
C5       0.76193    0.47555    0.94923   1.00
C5       0.84091    0.48895    0.74298   1.00
C5       0.65782    0.38930    0.75334   1.00
H2       0.82559    0.50912    0.72269   1.00
H2       0.85089    0.46288    0.72622   1.00
H2       0.64714    0.41700    0.76671   1.00
H2       0.67038    0.37105    0.77732   1.00
H2       0.61892    0.30970    0.76066   1.00
H2       0.88253    0.55753    0.71698   1.00
H2       0.90680    0.51237    0.70336   1.00
C2       0.75113    0.60395    0.75243   1.00
C3       0.75996    0.58403    0.71747   1.00
O2       0.77812    0.60326    0.68711   1.00
C3       0.74027    0.58174    0.78550   1.00
H1       0.73236    0.59615    0.81241   1.00
C3a      0.75876    0.54287    0.71658   1.00
H1       0.76776    0.52798    0.69025   1.00
C3b      0.74032    0.54078    0.78488   1.00
C4       0.74968    0.52100    0.75028   1.00
O3       0.81672    0.47833    0.77456   1.00
C5       0.75074    0.61280    0.65788   1.00
H2       0.73633    0.58609    0.64601   1.00
C5       0.77306    0.63326    0.62529   1.00
H2       0.72780    0.63274    0.66948   1.00
H2       0.78790    0.61068    0.60724   1.00
H2       0.79654    0.65093    0.63918   1.00
C5       0.74680    0.65918    0.59967   1.00
H2       0.72181    0.64176    0.58856   1.00
C5       0.76977    0.67547    0.56466   1.00
H2       0.73561    0.68493    0.61631   1.00
C5       0.87643    0.50983    0.75974   1.00
H2       0.89529    0.48785    0.77450   1.00
H2       0.86622    0.53048    0.78268   1.00
C5       0.89941    0.53200    0.72814   1.00
C5       0.93781    0.54775    0.74533   1.00
H2       0.56515    0.30714    0.71762   1.00
C5       0.53649    0.31088    0.77494   1.00
H2       0.54809    0.35677    0.73159   1.00
C5       0.79625    0.46663    0.97681   1.00
H2       0.73963    0.49449    0.96505   1.00
H2       0.74759    0.44707    0.93981   1.00
C5       0.74134    0.69503    0.53590   1.00
H2       0.79187    0.69789    0.57537   1.00
H2       0.78571    0.65063    0.54934   1.00
H2       0.93143    0.56398    0.77365   1.00
H2       0.95842    0.52239    0.75149   1.00
C5       0.95696    0.57583    0.71596   1.00
H2       0.55586    0.29884    0.79914   1.00
H2       0.51643    0.33429    0.78741   1.00
H2       0.51816    0.28626    0.76212   1.00
H2       0.82367    0.48180    0.96565   1.00
H2       0.78911    0.47771    1.00734   1.00
H2       0.80140    0.43379    0.97785   1.00
H2       0.71770    0.71111    0.55288   1.00
H2       0.75796    0.71664    0.51686   1.00
H2       0.72732    0.67181    0.51666   1.00
H2       0.94698    0.60693    0.72223   1.00
H2       0.99004    0.57402    0.71884   1.00
H2       0.94804    0.56734    0.68507   1.00
C5       0.73348    0.62430    0.36782   1.00
H2       0.70819    0.63760    0.35255   1.00
H2       0.72094    0.60331    0.38910   1.00
C5       0.75939    0.60283    0.33806   1.00
C5       0.74271    0.56216    0.32877   1.00
H2       0.78947    0.59950    0.34985   1.00
O3       0.81761    0.72891    0.52000   1.00
C4       0.74972    0.75032    0.47900   1.00
C3c      0.73868    0.71718    0.45757   1.00
H1       0.72983    0.69099    0.47275   1.00
C3d      0.76062    0.78433    0.45865   1.00
C3       0.73938    0.71705    0.41646   1.00
O2       0.72368    0.68531    0.39752   1.00
C3       0.76207    0.78406    0.41773   1.00
H1       0.77194    0.81038    0.40343   1.00
C2       0.75140    0.75067    0.39561   1.00
C5       0.84561    0.75911    0.52121   1.00
H2       0.85467    0.76627    0.55162   1.00
H2       0.83418    0.78626    0.50734   1.00
C5       0.88139    0.74522    0.49871   1.00
H2       0.87214    0.73702    0.46863   1.00
H2       0.89277    0.71832    0.51302   1.00
C5       0.91301    0.77710    0.49738   1.00
H2       0.92219    0.78562    0.52732   1.00
H2       0.90212    0.80348    0.48189   1.00
C5       0.94923    0.76193    0.47555   1.00
C5       0.74298    0.84091    0.48895   1.00
C5       0.75334    0.65782    0.38930   1.00
H2       0.72269    0.82559    0.50912   1.00
H2       0.72622    0.85089    0.46288   1.00
H2       0.76671    0.64714    0.41700   1.00
H2       0.77732    0.67038    0.37105   1.00
H2       0.76066    0.61892    0.30970   1.00
H2       0.71698    0.88253    0.55753   1.00
H2       0.70336    0.90680    0.51237   1.00
C2       0.75243    0.75113    0.60395   1.00
C3       0.71747    0.75996    0.58403   1.00
O2       0.68711    0.77812    0.60326   1.00
C3       0.78550    0.74027    0.58174   1.00
H1       0.81241    0.73236    0.59615   1.00
C3a      0.71658    0.75876    0.54287   1.00
H1       0.69025    0.76776    0.52798   1.00
C3b      0.78488    0.74032    0.54078   1.00
C4       0.75028    0.74968    0.52100   1.00
O3       0.77456    0.81672    0.47833   1.00
C5       0.65788    0.75074    0.61280   1.00
H2       0.64601    0.73633    0.58609   1.00
C5       0.62529    0.77306    0.63326   1.00
H2       0.66948    0.72780    0.63274   1.00
H2       0.60724    0.78790    0.61068   1.00
H2       0.63918    0.79654    0.65093   1.00
C5       0.59967    0.74680    0.65918   1.00
H2       0.58856    0.72181    0.64176   1.00
C5       0.56466    0.76977    0.67547   1.00
H2       0.61631    0.73561    0.68493   1.00
C5       0.75974    0.87643    0.50983   1.00
H2       0.77450    0.89529    0.48785   1.00
H2       0.78268    0.86622    0.53048   1.00
C5       0.72814    0.89941    0.53200   1.00
C5       0.74533    0.93781    0.54775   1.00
H2       0.71762    0.56515    0.30714   1.00
C5       0.77494    0.53649    0.31088   1.00
H2       0.73159    0.54809    0.35677   1.00
C5       0.97681    0.79625    0.46663   1.00
H2       0.96505    0.73963    0.49449   1.00
H2       0.93981    0.74759    0.44707   1.00
C5       0.53590    0.74134    0.69503   1.00
H2       0.57537    0.79187    0.69789   1.00
H2       0.54934    0.78571    0.65063   1.00
H2       0.77365    0.93143    0.56398   1.00
H2       0.75149    0.95842    0.52239   1.00
C5       0.71596    0.95696    0.57583   1.00
H2       0.79914    0.55586    0.29884   1.00
H2       0.78741    0.51643    0.33429   1.00
H2       0.76212    0.51816    0.28626   1.00
H2       0.96565    0.82367    0.48180   1.00
H2       1.00734    0.78911    0.47771   1.00
H2       0.97785    0.80140    0.43379   1.00
H2       0.55288    0.71770    0.71111   1.00
H2       0.51686    0.75796    0.71664   1.00
H2       0.51666    0.72732    0.67181   1.00
H2       0.72223    0.94698    0.60693   1.00
H2       0.71884    0.99004    0.57402   1.00
H2       0.68507    0.94804    0.56734   1.00
C5       0.23348    0.37570    1.13218   1.00
H2       0.20819    0.36240    1.14745   1.00
H2       0.22094    0.39669    1.11090   1.00
C5       0.25939    0.39717    1.16194   1.00
C5       0.24271    0.43784    1.17123   1.00
H2       0.28947    0.40050    1.15015   1.00
O3       0.31761    0.27109    0.98000   1.00
C4       0.24972    0.24968    1.02100   1.00
C3c      0.23868    0.28282    1.04243   1.00
H1       0.22983    0.30901    1.02725   1.00
C3d      0.26062    0.21567    1.04135   1.00
C3       0.23938    0.28295    1.08354   1.00
O2       0.22368    0.31469    1.10248   1.00
C3       0.26207    0.21594    1.08227   1.00
H1       0.27194    0.18962    1.09657   1.00
C2       0.25140    0.24933    1.10439   1.00
C5       0.34561    0.24089    0.97879   1.00
H2       0.35467    0.23373    0.94838   1.00
H2       0.33418    0.21374    0.99266   1.00
C5       0.38139    0.25478    1.00129   1.00
H2       0.37214    0.26298    1.03137   1.00
H2       0.39277    0.28168    0.98698   1.00
C5       0.41301    0.22290    1.00262   1.00
H2       0.42219    0.21438    0.97268   1.00
H2       0.40212    0.19652    1.01811   1.00
C5       0.44923    0.23807    1.02445   1.00
C5       0.24298    0.15909    1.01105   1.00
C5       0.25334    0.34218    1.11070   1.00
H2       0.22269    0.17441    0.99088   1.00
H2       0.22622    0.14911    1.03712   1.00
H2       0.26671    0.35286    1.08300   1.00
H2       0.27732    0.32962    1.12895   1.00
H2       0.26066    0.38108    1.19030   1.00
H2       0.21698    0.11747    0.94247   1.00
H2       0.20336    0.09320    0.98763   1.00
C2       0.25243    0.24887    0.89605   1.00
C3       0.21747    0.24004    0.91597   1.00
O2       0.18711    0.22188    0.89674   1.00
C3       0.28550    0.25973    0.91826   1.00
H1       0.31241    0.26764    0.90385   1.00
C3a      0.21658    0.24124    0.95713   1.00
H1       0.19025    0.23224    0.97202   1.00
C3b      0.28488    0.25968    0.95922   1.00
C4       0.25028    0.25032    0.97900   1.00
O3       0.27456    0.18328    1.02167   1.00
C5       0.15788    0.24926    0.88720   1.00
H2       0.14601    0.26367    0.91391   1.00
C5       0.12529    0.22694    0.86674   1.00
H2       0.16948    0.27220    0.86726   1.00
H2       0.10724    0.21210    0.88932   1.00
H2       0.13918    0.20346    0.84907   1.00
C5       0.09967    0.25320    0.84082   1.00
H2       0.08856    0.27819    0.85824   1.00
C5       0.06466    0.23023    0.82453   1.00
H2       0.11631    0.26439    0.81507   1.00
C5       0.25974    0.12357    0.99017   1.00
H2       0.27450    0.10471    1.01215   1.00
H2       0.28268    0.13378    0.96952   1.00
C5       0.22814    0.10059    0.96800   1.00
C5       0.24533    0.06219    0.95225   1.00
H2       0.21762    0.43485    1.19286   1.00
C5       0.27494    0.46351    1.18912   1.00
H2       0.23159    0.45191    1.14323   1.00
C5       0.47681    0.20375    1.03337   1.00
H2       0.46505    0.26037    1.00551   1.00
H2       0.43981    0.25241    1.05293   1.00
C5       0.03590    0.25866    0.80497   1.00
H2       0.07537    0.20813    0.80211   1.00
H2       0.04934    0.21429    0.84937   1.00
H2       0.27365    0.06857    0.93602   1.00
H2       0.25149    0.04158    0.97761   1.00
C5       0.21596    0.04304    0.92417   1.00
H2       0.29914    0.44414    1.20116   1.00
H2       0.28741    0.48357    1.16571   1.00
H2       0.26212    0.48184    1.21374   1.00
H2       0.46565    0.17633    1.01820   1.00
H2       0.50734    0.21089    1.02229   1.00
H2       0.47785    0.19860    1.06621   1.00
H2       0.05288    0.28230    0.78889   1.00
H2       0.01686    0.24204    0.78336   1.00
H2       0.01666    0.27268    0.82819   1.00
H2       0.22223    0.05302    0.89307   1.00
H2       0.21884    0.00996    0.92598   1.00
H2       0.18507    0.05196    0.93266   1.00
C5       0.37570    0.63218    0.73348   1.00
H2       0.36240    0.64745    0.70819   1.00
H2       0.39669    0.61090    0.72094   1.00
C5       0.39717    0.66194    0.75939   1.00
C5       0.43784    0.67123    0.74271   1.00
H2       0.40050    0.65015    0.78947   1.00
O3       0.27109    0.48000    0.81761   1.00
C4       0.24968    0.52100    0.74972   1.00
C3c      0.28282    0.54243    0.73868   1.00
H1       0.30901    0.52725    0.72983   1.00
C3d      0.21567    0.54135    0.76062   1.00
C3       0.28295    0.58354    0.73938   1.00
O2       0.31469    0.60248    0.72368   1.00
C3       0.21594    0.58227    0.76207   1.00
H1       0.18962    0.59657    0.77194   1.00
C2       0.24933    0.60439    0.75140   1.00
C5       0.24089    0.47879    0.84561   1.00
H2       0.23373    0.44838    0.85467   1.00
H2       0.21374    0.49266    0.83418   1.00
C5       0.25478    0.50129    0.88139   1.00
H2       0.26298    0.53137    0.87214   1.00
H2       0.28168    0.48698    0.89277   1.00
C5       0.22290    0.50262    0.91301   1.00
H2       0.21438    0.47268    0.92219   1.00
H2       0.19652    0.51811    0.90212   1.00
C5       0.23807    0.52445    0.94923   1.00
C5       0.15909    0.51105    0.74298   1.00
C5       0.34218    0.61070    0.75334   1.00
H2       0.17441    0.49088    0.72269   1.00
H2       0.14911    0.53712    0.72622   1.00
H2       0.35286    0.58300    0.76671   1.00
H2       0.32962    0.62895    0.77732   1.00
H2       0.38108    0.69030    0.76066   1.00
H2       0.11747    0.44247    0.71698   1.00
H2       0.09320    0.48763    0.70336   1.00
C2       0.24887    0.39605    0.75243   1.00
C3       0.24004    0.41597    0.71747   1.00
O2       0.22188    0.39674    0.68711   1.00
C3       0.25973    0.41826    0.78550   1.00
H1       0.26764    0.40385    0.81241   1.00
C3a      0.24124    0.45713    0.71658   1.00
H1       0.23224    0.47202    0.69025   1.00
C3b      0.25968    0.45922    0.78488   1.00
C4       0.25032    0.47900    0.75028   1.00
O3       0.18328    0.52167    0.77456   1.00
C5       0.24926    0.38720    0.65788   1.00
H2       0.26367    0.41391    0.64601   1.00
C5       0.22694    0.36674    0.62529   1.00
H2       0.27220    0.36726    0.66948   1.00
H2       0.21210    0.38932    0.60724   1.00
H2       0.20346    0.34907    0.63918   1.00
C5       0.25320    0.34082    0.59967   1.00
H2       0.27819    0.35824    0.58856   1.00
C5       0.23023    0.32453    0.56466   1.00
H2       0.26439    0.31507    0.61631   1.00
C5       0.12357    0.49017    0.75974   1.00
H2       0.10471    0.51215    0.77450   1.00
H2       0.13378    0.46952    0.78268   1.00
C5       0.10059    0.46800    0.72814   1.00
C5       0.06219    0.45225    0.74533   1.00
H2       0.43485    0.69286    0.71762   1.00
C5       0.46351    0.68912    0.77494   1.00
H2       0.45191    0.64323    0.73159   1.00
C5       0.20375    0.53337    0.97681   1.00
H2       0.26037    0.50551    0.96505   1.00
H2       0.25241    0.55293    0.93981   1.00
C5       0.25866    0.30497    0.53590   1.00
H2       0.20813    0.30211    0.57537   1.00
H2       0.21429    0.34937    0.54934   1.00
H2       0.06857    0.43602    0.77365   1.00
H2       0.04158    0.47761    0.75149   1.00
C5       0.04304    0.42417    0.71596   1.00
H2       0.44414    0.70116    0.79914   1.00
H2       0.48357    0.66571    0.78741   1.00
H2       0.48184    0.71374    0.76212   1.00
H2       0.17633    0.51820    0.96565   1.00
H2       0.21089    0.52229    1.00734   1.00
H2       0.19860    0.56621    0.97785   1.00
H2       0.28230    0.28889    0.55288   1.00
H2       0.24204    0.28336    0.51686   1.00
H2       0.27268    0.32819    0.51666   1.00
H2       0.05302    0.39307    0.72223   1.00
H2       0.00996    0.42598    0.71884   1.00
H2       0.05196    0.43266    0.68507   1.00
C5       -0.13218   0.23348    0.62430   1.00
H2       -0.14745   0.20819    0.63760   1.00
H2       -0.11090   0.22094    0.60331   1.00
C5       -0.16194   0.25939    0.60283   1.00
C5       -0.17123   0.24271    0.56216   1.00
H2       -0.15015   0.28947    0.59950   1.00
O3       0.02000    0.31761    0.72891   1.00
C4       -0.02100   0.24972    0.75032   1.00
C3c      -0.04243   0.23868    0.71718   1.00
H1       -0.02725   0.22983    0.69099   1.00
C3d      -0.04135   0.26062    0.78433   1.00
C3       -0.08354   0.23938    0.71705   1.00
O2       -0.10248   0.22368    0.68531   1.00
C3       -0.08227   0.26207    0.78406   1.00
H1       -0.09657   0.27194    0.81038   1.00
C2       -0.10439   0.25140    0.75067   1.00
C5       0.02121    0.34561    0.75911   1.00
H2       0.05162    0.35467    0.76627   1.00
H2       0.00734    0.33418    0.78626   1.00
C5       -0.00129   0.38139    0.74522   1.00
H2       -0.03137   0.37214    0.73702   1.00
H2       0.01302    0.39277    0.71832   1.00
C5       -0.00262   0.41301    0.77710   1.00
H2       0.02732    0.42219    0.78562   1.00
H2       -0.01811   0.40212    0.80348   1.00
C5       -0.02445   0.44923    0.76193   1.00
C5       -0.01105   0.24298    0.84091   1.00
C5       -0.11070   0.25334    0.65782   1.00
H2       0.00912    0.22269    0.82559   1.00
H2       -0.03712   0.22622    0.85089   1.00
H2       -0.08300   0.26671    0.64714   1.00
H2       -0.12895   0.27732    0.67038   1.00
H2       -0.19030   0.26066    0.61892   1.00
H2       0.05753    0.21698    0.88253   1.00
H2       0.01237    0.20336    0.90680   1.00
C2       0.10395    0.25243    0.75113   1.00
C3       0.08403    0.21747    0.75996   1.00
O2       0.10326    0.18711    0.77812   1.00
C3       0.08174    0.28550    0.74027   1.00
H1       0.09615    0.31241    0.73236   1.00
C3a      0.04287    0.21658    0.75876   1.00
H1       0.02798    0.19025    0.76776   1.00
C3b      0.04078    0.28488    0.74032   1.00
C4       0.02100    0.25028    0.74968   1.00
O3       -0.02167   0.27456    0.81672   1.00
C5       0.11280    0.15788    0.75074   1.00
H2       0.08609    0.14601    0.73633   1.00
C5       0.13326    0.12529    0.77306   1.00
H2       0.13274    0.16948    0.72780   1.00
H2       0.11068    0.10724    0.78790   1.00
H2       0.15093    0.13918    0.79654   1.00
C5       0.15918    0.09967    0.74680   1.00
H2       0.14176    0.08856    0.72181   1.00
C5       0.17547    0.06466    0.76977   1.00
H2       0.18493    0.11631    0.73561   1.00
C5       0.00983    0.25974    0.87643   1.00
H2       -0.01215   0.27450    0.89529   1.00
H2       0.03048    0.28268    0.86622   1.00
C5       0.03200    0.22814    0.89941   1.00
C5       0.04775    0.24533    0.93781   1.00
H2       -0.19286   0.21762    0.56515   1.00
C5       -0.18912   0.27494    0.53649   1.00
H2       -0.14323   0.23159    0.54809   1.00
C5       -0.03337   0.47681    0.79625   1.00
H2       -0.00551   0.46505    0.73963   1.00
H2       -0.05293   0.43981    0.74759   1.00
C5       0.19503    0.03590    0.74134   1.00
H2       0.19789    0.07537    0.79187   1.00
H2       0.15063    0.04934    0.78571   1.00
H2       0.06398    0.27365    0.93143   1.00
H2       0.02239    0.25149    0.95842   1.00
C5       0.07583    0.21596    0.95696   1.00
H2       -0.20116   0.29914    0.55586   1.00
H2       -0.16571   0.28741    0.51643   1.00
H2       -0.21374   0.26212    0.51816   1.00
H2       -0.01820   0.46565    0.82367   1.00
H2       -0.02229   0.50734    0.78911   1.00
H2       -0.06621   0.47785    0.80140   1.00
H2       0.21111    0.05288    0.71770   1.00
H2       0.21664    0.01686    0.75796   1.00
H2       0.17181    0.01666    0.72732   1.00
H2       0.10693    0.22223    0.94698   1.00
H2       0.07402    0.21884    0.99004   1.00
H2       0.06734    0.18507    0.94804   1.00
C5       0.63218    0.23348    0.87570   1.00
H2       0.64745    0.20819    0.86240   1.00
H2       0.61090    0.22094    0.89669   1.00
C5       0.66194    0.25939    0.89717   1.00
C5       0.67123    0.24271    0.93784   1.00
H2       0.65015    0.28947    0.90050   1.00
O3       0.48000    0.31761    0.77109   1.00
C4       0.52100    0.24972    0.74968   1.00
C3c      0.54243    0.23868    0.78282   1.00
H1       0.52725    0.22983    0.80901   1.00
C3d      0.54135    0.26062    0.71567   1.00
C3       0.58354    0.23938    0.78295   1.00
O2       0.60248    0.22368    0.81469   1.00
C3       0.58227    0.26207    0.71594   1.00
H1       0.59657    0.27194    0.68962   1.00
C2       0.60439    0.25140    0.74933   1.00
C5       0.47879    0.34561    0.74089   1.00
H2       0.44838    0.35467    0.73373   1.00
H2       0.49266    0.33418    0.71374   1.00
C5       0.50129    0.38139    0.75478   1.00
H2       0.53137    0.37214    0.76298   1.00
H2       0.48698    0.39277    0.78168   1.00
C5       0.50262    0.41301    0.72290   1.00
H2       0.47268    0.42219    0.71438   1.00
H2       0.51811    0.40212    0.69652   1.00
C5       0.52445    0.44923    0.73807   1.00
C5       0.51105    0.24298    0.65909   1.00
C5       0.61070    0.25334    0.84218   1.00
H2       0.49088    0.22269    0.67441   1.00
H2       0.53712    0.22622    0.64911   1.00
H2       0.58300    0.26671    0.85286   1.00
H2       0.62895    0.27732    0.82962   1.00
H2       0.69030    0.26066    0.88108   1.00
H2       0.44247    0.21698    0.61747   1.00
H2       0.48763    0.20336    0.59320   1.00
C2       0.39605    0.25243    0.74887   1.00
C3       0.41597    0.21747    0.74004   1.00
O2       0.39674    0.18711    0.72188   1.00
C3       0.41826    0.28550    0.75973   1.00
H1       0.40385    0.31241    0.76764   1.00
C3a      0.45713    0.21658    0.74124   1.00
H1       0.47202    0.19025    0.73224   1.00
C3b      0.45922    0.28488    0.75968   1.00
C4       0.47900    0.25028    0.75032   1.00
O3       0.52167    0.27456    0.68328   1.00
C5       0.38720    0.15788    0.74926   1.00
H2       0.41391    0.14601    0.76367   1.00
C5       0.36674    0.12529    0.72694   1.00
H2       0.36726    0.16948    0.77220   1.00
H2       0.38932    0.10724    0.71210   1.00
H2       0.34907    0.13918    0.70346   1.00
C5       0.34082    0.09967    0.75320   1.00
H2       0.35824    0.08856    0.77819   1.00
C5       0.32453    0.06466    0.73023   1.00
H2       0.31507    0.11631    0.76439   1.00
C5       0.49017    0.25974    0.62357   1.00
H2       0.51215    0.27450    0.60471   1.00
H2       0.46952    0.28268    0.63378   1.00
C5       0.46800    0.22814    0.60059   1.00
C5       0.45225    0.24533    0.56219   1.00
H2       0.69286    0.21762    0.93485   1.00
C5       0.68912    0.27494    0.96351   1.00
H2       0.64323    0.23159    0.95191   1.00
C5       0.53337    0.47681    0.70375   1.00
H2       0.50551    0.46505    0.76037   1.00
H2       0.55293    0.43981    0.75241   1.00
C5       0.30497    0.03590    0.75866   1.00
H2       0.30211    0.07537    0.70813   1.00
H2       0.34937    0.04934    0.71429   1.00
H2       0.43602    0.27365    0.56857   1.00
H2       0.47761    0.25149    0.54158   1.00
C5       0.42417    0.21596    0.54304   1.00
H2       0.70116    0.29914    0.94414   1.00
H2       0.66571    0.28741    0.98357   1.00
H2       0.71374    0.26212    0.98184   1.00
H2       0.51820    0.46565    0.67633   1.00
H2       0.52229    0.50734    0.71089   1.00
H2       0.56621    0.47785    0.69860   1.00
H2       0.28889    0.05288    0.78230   1.00
H2       0.28336    0.01686    0.74204   1.00
H2       0.32819    0.01666    0.77268   1.00
H2       0.39307    0.22223    0.55302   1.00
H2       0.42598    0.21884    0.50996   1.00
H2       0.43266    0.18507    0.55196   1.00
C5       0.12430    -0.13218   0.73348   1.00
H2       0.13760    -0.14745   0.70819   1.00
H2       0.10331    -0.11090   0.72094   1.00
C5       0.10283    -0.16194   0.75939   1.00
C5       0.06216    -0.17123   0.74271   1.00
H2       0.09950    -0.15015   0.78947   1.00
O3       0.22891    0.02000    0.81761   1.00
C4       0.25032    -0.02100   0.74972   1.00
C3c      0.21718    -0.04243   0.73868   1.00
H1       0.19099    -0.02725   0.72983   1.00
C3d      0.28433    -0.04135   0.76062   1.00
C3       0.21705    -0.08354   0.73938   1.00
O2       0.18531    -0.10248   0.72368   1.00
C3       0.28406    -0.08227   0.76207   1.00
H1       0.31038    -0.09657   0.77194   1.00
C2       0.25067    -0.10439   0.75140   1.00
C5       0.25911    0.02121    0.84561   1.00
H2       0.26627    0.05162    0.85467   1.00
H2       0.28626    0.00734    0.83418   1.00
C5       0.24522    -0.00129   0.88139   1.00
H2       0.23702    -0.03137   0.87214   1.00
H2       0.21832    0.01302    0.89277   1.00
C5       0.27710    -0.00262   0.91301   1.00
H2       0.28562    0.02732    0.92219   1.00
H2       0.30348    -0.01811   0.90212   1.00
C5       0.26193    -0.02445   0.94923   1.00
C5       0.34091    -0.01105   0.74298   1.00
C5       0.15782    -0.11070   0.75334   1.00
H2       0.32559    0.00912    0.72269   1.00
H2       0.35089    -0.03712   0.72622   1.00
H2       0.14714    -0.08300   0.76671   1.00
H2       0.17038    -0.12895   0.77732   1.00
H2       0.11892    -0.19030   0.76066   1.00
H2       0.38253    0.05753    0.71698   1.00
H2       0.40680    0.01237    0.70336   1.00
C2       0.25113    0.10395    0.75243   1.00
C3       0.25996    0.08403    0.71747   1.00
O2       0.27812    0.10326    0.68711   1.00
C3       0.24027    0.08174    0.78550   1.00
H1       0.23236    0.09615    0.81241   1.00
C3a      0.25876    0.04287    0.71658   1.00
H1       0.26776    0.02798    0.69025   1.00
C3b      0.24032    0.04078    0.78488   1.00
C4       0.24968    0.02100    0.75028   1.00
O3       0.31672    -0.02167   0.77456   1.00
C5       0.25074    0.11280    0.65788   1.00
H2       0.23633    0.08609    0.64601   1.00
C5       0.27306    0.13326    0.62529   1.00
H2       0.22780    0.13274    0.66948   1.00
H2       0.28790    0.11068    0.60724   1.00
H2       0.29654    0.15093    0.63918   1.00
C5       0.24680    0.15918    0.59967   1.00
H2       0.22181    0.14176    0.58856   1.00
C5       0.26977    0.17547    0.56466   1.00
H2       0.23561    0.18493    0.61631   1.00
C5       0.37643    0.00983    0.75974   1.00
H2       0.39529    -0.01215   0.77450   1.00
H2       0.36622    0.03048    0.78268   1.00
C5       0.39941    0.03200    0.72814   1.00
C5       0.43781    0.04775    0.74533   1.00
H2       0.06515    -0.19286   0.71762   1.00
C5       0.03649    -0.18912   0.77494   1.00
H2       0.04809    -0.14323   0.73159   1.00
C5       0.29625    -0.03337   0.97681   1.00
H2       0.23963    -0.00551   0.96505   1.00
H2       0.24759    -0.05293   0.93981   1.00
C5       0.24134    0.19503    0.53590   1.00
H2       0.29187    0.19789    0.57537   1.00
H2       0.28571    0.15063    0.54934   1.00
H2       0.43143    0.06398    0.77365   1.00
H2       0.45842    0.02239    0.75149   1.00
C5       0.45696    0.07583    0.71596   1.00
H2       0.05586    -0.20116   0.79914   1.00
H2       0.01643    -0.16571   0.78741   1.00
H2       0.01816    -0.21374   0.76212   1.00
H2       0.32367    -0.01820   0.96565   1.00
H2       0.28911    -0.02229   1.00734   1.00
H2       0.30140    -0.06621   0.97785   1.00
H2       0.21770    0.21111    0.55288   1.00
H2       0.25796    0.21664    0.51686   1.00
H2       0.22732    0.17181    0.51666   1.00
H2       0.44698    0.10693    0.72223   1.00
H2       0.49004    0.07402    0.71884   1.00
H2       0.44804    0.06734    0.68507   1.00
C5       0.23348    0.12430    0.36782   1.00
H2       0.20819    0.13760    0.35255   1.00
H2       0.22094    0.10331    0.38910   1.00
C5       0.25939    0.10283    0.33806   1.00
C5       0.24271    0.06216    0.32877   1.00
H2       0.28947    0.09950    0.34985   1.00
O3       0.31761    0.22891    0.52000   1.00
C4       0.24972    0.25032    0.47900   1.00
C3c      0.23868    0.21718    0.45757   1.00
H1       0.22983    0.19099    0.47275   1.00
C3d      0.26062    0.28433    0.45865   1.00
C3       0.23938    0.21705    0.41646   1.00
O2       0.22368    0.18531    0.39752   1.00
C3       0.26207    0.28406    0.41773   1.00
H1       0.27194    0.31038    0.40343   1.00
C2       0.25140    0.25067    0.39561   1.00
C5       0.34561    0.25911    0.52121   1.00
H2       0.35467    0.26627    0.55162   1.00
H2       0.33418    0.28626    0.50734   1.00
C5       0.38139    0.24522    0.49871   1.00
H2       0.37214    0.23702    0.46863   1.00
H2       0.39277    0.21832    0.51302   1.00
C5       0.41301    0.27710    0.49738   1.00
H2       0.42219    0.28562    0.52732   1.00
H2       0.40212    0.30348    0.48189   1.00
C5       0.44923    0.26193    0.47555   1.00
C5       0.24298    0.34091    0.48895   1.00
C5       0.25334    0.15782    0.38930   1.00
H2       0.22269    0.32559    0.50912   1.00
H2       0.22622    0.35089    0.46288   1.00
H2       0.26671    0.14714    0.41700   1.00
H2       0.27732    0.17038    0.37105   1.00
H2       0.26066    0.11892    0.30970   1.00
H2       0.21698    0.38253    0.55753   1.00
H2       0.20336    0.40680    0.51237   1.00
C2       0.25243    0.25113    0.60395   1.00
C3       0.21747    0.25996    0.58403   1.00
O2       0.18711    0.27812    0.60326   1.00
C3       0.28550    0.24027    0.58174   1.00
H1       0.31241    0.23236    0.59615   1.00
C3a      0.21658    0.25876    0.54287   1.00
H1       0.19025    0.26776    0.52798   1.00
C3b      0.28488    0.24032    0.54078   1.00
C4       0.25028    0.24968    0.52100   1.00
O3       0.27456    0.31672    0.47833   1.00
C5       0.15788    0.25074    0.61280   1.00
H2       0.14601    0.23633    0.58609   1.00
C5       0.12529    0.27306    0.63326   1.00
H2       0.16948    0.22780    0.63274   1.00
H2       0.10724    0.28790    0.61068   1.00
H2       0.13918    0.29654    0.65093   1.00
C5       0.09967    0.24680    0.65918   1.00
H2       0.08856    0.22181    0.64176   1.00
C5       0.06466    0.26977    0.67547   1.00
H2       0.11631    0.23561    0.68493   1.00
C5       0.25974    0.37643    0.50983   1.00
H2       0.27450    0.39529    0.48785   1.00
H2       0.28268    0.36622    0.53048   1.00
C5       0.22814    0.39941    0.53200   1.00
C5       0.24533    0.43781    0.54775   1.00
H2       0.21762    0.06515    0.30714   1.00
C5       0.27494    0.03649    0.31088   1.00
H2       0.23159    0.04809    0.35677   1.00
C5       0.47681    0.29625    0.46663   1.00
H2       0.46505    0.23963    0.49449   1.00
H2       0.43981    0.24759    0.44707   1.00
C5       0.03590    0.24134    0.69503   1.00
H2       0.07537    0.29187    0.69789   1.00
H2       0.04934    0.28571    0.65063   1.00
H2       0.27365    0.43143    0.56398   1.00
H2       0.25149    0.45842    0.52239   1.00
C5       0.21596    0.45696    0.57583   1.00
H2       0.29914    0.05586    0.29884   1.00
H2       0.28741    0.01643    0.33429   1.00
H2       0.26212    0.01816    0.28626   1.00
H2       0.46565    0.32367    0.48180   1.00
H2       0.50734    0.28911    0.47771   1.00
H2       0.47785    0.30140    0.43379   1.00
H2       0.05288    0.21770    0.71111   1.00
H2       0.01686    0.25796    0.71664   1.00
H2       0.01666    0.22732    0.67181   1.00
H2       0.22223    0.44698    0.60693   1.00
H2       0.21884    0.49004    0.57402   1.00
H2       0.18507    0.44804    0.56734   1.00
C5       0.23348    0.87570    0.63218   1.00
H2       0.20819    0.86240    0.64745   1.00
H2       0.22094    0.89669    0.61090   1.00
C5       0.25939    0.89717    0.66194   1.00
C5       0.24271    0.93784    0.67123   1.00
H2       0.28947    0.90050    0.65015   1.00
O3       0.31761    0.77109    0.48000   1.00
C4       0.24972    0.74968    0.52100   1.00
C3c      0.23868    0.78282    0.54243   1.00
H1       0.22983    0.80901    0.52725   1.00
C3d      0.26062    0.71567    0.54135   1.00
C3       0.23938    0.78295    0.58354   1.00
O2       0.22368    0.81469    0.60248   1.00
C3       0.26207    0.71594    0.58227   1.00
H1       0.27194    0.68962    0.59657   1.00
C2       0.25140    0.74933    0.60439   1.00
C5       0.34561    0.74089    0.47879   1.00
H2       0.35467    0.73373    0.44838   1.00
H2       0.33418    0.71374    0.49266   1.00
C5       0.38139    0.75478    0.50129   1.00
H2       0.37214    0.76298    0.53137   1.00
H2       0.39277    0.78168    0.48698   1.00
C5       0.41301    0.72290    0.50262   1.00
H2       0.42219    0.71438    0.47268   1.00
H2       0.40212    0.69652    0.51811   1.00
C5       0.44923    0.73807    0.52445   1.00
C5       0.24298    0.65909    0.51105   1.00
C5       0.25334    0.84218    0.61070   1.00
H2       0.22269    0.67441    0.49088   1.00
H2       0.22622    0.64911    0.53712   1.00
H2       0.26671    0.85286    0.58300   1.00
H2       0.27732    0.82962    0.62895   1.00
H2       0.26066    0.88108    0.69030   1.00
H2       0.21698    0.61747    0.44247   1.00
H2       0.20336    0.59320    0.48763   1.00
C2       0.25243    0.74887    0.39605   1.00
C3       0.21747    0.74004    0.41597   1.00
O2       0.18711    0.72188    0.39674   1.00
C3       0.28550    0.75973    0.41826   1.00
H1       0.31241    0.76764    0.40385   1.00
C3a      0.21658    0.74124    0.45713   1.00
H1       0.19025    0.73224    0.47202   1.00
C3b      0.28488    0.75968    0.45922   1.00
C4       0.25028    0.75032    0.47900   1.00
O3       0.27456    0.68328    0.52167   1.00
C5       0.15788    0.74926    0.38720   1.00
H2       0.14601    0.76367    0.41391   1.00
C5       0.12529    0.72694    0.36674   1.00
H2       0.16948    0.77220    0.36726   1.00
H2       0.10724    0.71210    0.38932   1.00
H2       0.13918    0.70346    0.34907   1.00
C5       0.09967    0.75320    0.34082   1.00
H2       0.08856    0.77819    0.35824   1.00
C5       0.06466    0.73023    0.32453   1.00
H2       0.11631    0.76439    0.31507   1.00
C5       0.25974    0.62357    0.49017   1.00
H2       0.27450    0.60471    0.51215   1.00
H2       0.28268    0.63378    0.46952   1.00
C5       0.22814    0.60059    0.46800   1.00
C5       0.24533    0.56219    0.45225   1.00
H2       0.21762    0.93485    0.69286   1.00
C5       0.27494    0.96351    0.68912   1.00
H2       0.23159    0.95191    0.64323   1.00
C5       0.47681    0.70375    0.53337   1.00
H2       0.46505    0.76037    0.50551   1.00
H2       0.43981    0.75241    0.55293   1.00
C5       0.03590    0.75866    0.30497   1.00
H2       0.07537    0.70813    0.30211   1.00
H2       0.04934    0.71429    0.34937   1.00
H2       0.27365    0.56857    0.43602   1.00
H2       0.25149    0.54158    0.47761   1.00
C5       0.21596    0.54304    0.42417   1.00
H2       0.29914    0.94414    0.70116   1.00
H2       0.28741    0.98357    0.66571   1.00
H2       0.26212    0.98184    0.71374   1.00
H2       0.46565    0.67633    0.51820   1.00
H2       0.50734    0.71089    0.52229   1.00
H2       0.47785    0.69860    0.56621   1.00
H2       0.05288    0.78230    0.28889   1.00
H2       0.01686    0.74204    0.28336   1.00
H2       0.01666    0.77268    0.32819   1.00
H2       0.22223    0.55302    0.39307   1.00
H2       0.21884    0.50996    0.42598   1.00
H2       0.18507    0.55196    0.43266   1.00
C5       0.37570    1.13218    0.23348   1.00
H2       0.36240    1.14745    0.20819   1.00
H2       0.39669    1.11090    0.22094   1.00
C5       0.39717    1.16194    0.25939   1.00
C5       0.43784    1.17123    0.24271   1.00
H2       0.40050    1.15015    0.28947   1.00
O3       0.27109    0.98000    0.31761   1.00
C4       0.24968    1.02100    0.24972   1.00
C3c      0.28282    1.04243    0.23868   1.00
H1       0.30901    1.02725    0.22983   1.00
C3d      0.21567    1.04135    0.26062   1.00
C3       0.28295    1.08354    0.23938   1.00
O2       0.31469    1.10248    0.22368   1.00
C3       0.21594    1.08227    0.26207   1.00
H1       0.18962    1.09657    0.27194   1.00
C2       0.24933    1.10439    0.25140   1.00
C5       0.24089    0.97879    0.34561   1.00
H2       0.23373    0.94838    0.35467   1.00
H2       0.21374    0.99266    0.33418   1.00
C5       0.25478    1.00129    0.38139   1.00
H2       0.26298    1.03137    0.37214   1.00
H2       0.28168    0.98698    0.39277   1.00
C5       0.22290    1.00262    0.41301   1.00
H2       0.21438    0.97268    0.42219   1.00
H2       0.19652    1.01811    0.40212   1.00
C5       0.23807    1.02445    0.44923   1.00
C5       0.15909    1.01105    0.24298   1.00
C5       0.34218    1.11070    0.25334   1.00
H2       0.17441    0.99088    0.22269   1.00
H2       0.14911    1.03712    0.22622   1.00
H2       0.35286    1.08300    0.26671   1.00
H2       0.32962    1.12895    0.27732   1.00
H2       0.38108    1.19030    0.26066   1.00
H2       0.11747    0.94247    0.21698   1.00
H2       0.09320    0.98763    0.20336   1.00
C2       0.24887    0.89605    0.25243   1.00
C3       0.24004    0.91597    0.21747   1.00
O2       0.22188    0.89674    0.18711   1.00
C3       0.25973    0.91826    0.28550   1.00
H1       0.26764    0.90385    0.31241   1.00
C3a      0.24124    0.95713    0.21658   1.00
H1       0.23224    0.97202    0.19025   1.00
C3b      0.25968    0.95922    0.28488   1.00
C4       0.25032    0.97900    0.25028   1.00
O3       0.18328    1.02167    0.27456   1.00
C5       0.24926    0.88720    0.15788   1.00
H2       0.26367    0.91391    0.14601   1.00
C5       0.22694    0.86674    0.12529   1.00
H2       0.27220    0.86726    0.16948   1.00
H2       0.21210    0.88932    0.10724   1.00
H2       0.20346    0.84907    0.13918   1.00
C5       0.25320    0.84082    0.09967   1.00
H2       0.27819    0.85824    0.08856   1.00
C5       0.23023    0.82453    0.06466   1.00
H2       0.26439    0.81507    0.11631   1.00
C5       0.12357    0.99017    0.25974   1.00
H2       0.10471    1.01215    0.27450   1.00
H2       0.13378    0.96952    0.28268   1.00
C5       0.10059    0.96800    0.22814   1.00
C5       0.06219    0.95225    0.24533   1.00
H2       0.43485    1.19286    0.21762   1.00
C5       0.46351    1.18912    0.27494   1.00
H2       0.45191    1.14323    0.23159   1.00
C5       0.20375    1.03337    0.47681   1.00
H2       0.26037    1.00551    0.46505   1.00
H2       0.25241    1.05293    0.43981   1.00
C5       0.25866    0.80497    0.03590   1.00
H2       0.20813    0.80211    0.07537   1.00
H2       0.21429    0.84937    0.04934   1.00
H2       0.06857    0.93602    0.27365   1.00
H2       0.04158    0.97761    0.25149   1.00
C5       0.04304    0.92417    0.21596   1.00
H2       0.44414    1.20116    0.29914   1.00
H2       0.48357    1.16571    0.28741   1.00
H2       0.48184    1.21374    0.26212   1.00
H2       0.17633    1.01820    0.46565   1.00
H2       0.21089    1.02229    0.50734   1.00
H2       0.19860    1.06621    0.47785   1.00
H2       0.28230    0.78889    0.05288   1.00
H2       0.24204    0.78336    0.01686   1.00
H2       0.27268    0.82819    0.01666   1.00
H2       0.05302    0.89307    0.22223   1.00
H2       0.00996    0.92598    0.21884   1.00
H2       0.05196    0.93266    0.18507   1.00
C5       -0.13218   0.73348    0.12430   1.00
H2       -0.14745   0.70819    0.13760   1.00
H2       -0.11090   0.72094    0.10331   1.00
C5       -0.16194   0.75939    0.10283   1.00
C5       -0.17123   0.74271    0.06216   1.00
H2       -0.15015   0.78947    0.09950   1.00
O3       0.02000    0.81761    0.22891   1.00
C4       -0.02100   0.74972    0.25032   1.00
C3c      -0.04243   0.73868    0.21718   1.00
H1       -0.02725   0.72983    0.19099   1.00
C3d      -0.04135   0.76062    0.28433   1.00
C3       -0.08354   0.73938    0.21705   1.00
O2       -0.10248   0.72368    0.18531   1.00
C3       -0.08227   0.76207    0.28406   1.00
H1       -0.09657   0.77194    0.31038   1.00
C2       -0.10439   0.75140    0.25067   1.00
C5       0.02121    0.84561    0.25911   1.00
H2       0.05162    0.85467    0.26627   1.00
H2       0.00734    0.83418    0.28626   1.00
C5       -0.00129   0.88139    0.24522   1.00
H2       -0.03137   0.87214    0.23702   1.00
H2       0.01302    0.89277    0.21832   1.00
C5       -0.00262   0.91301    0.27710   1.00
H2       0.02732    0.92219    0.28562   1.00
H2       -0.01811   0.90212    0.30348   1.00
C5       -0.02445   0.94923    0.26193   1.00
C5       -0.01105   0.74298    0.34091   1.00
C5       -0.11070   0.75334    0.15782   1.00
H2       0.00912    0.72269    0.32559   1.00
H2       -0.03712   0.72622    0.35089   1.00
H2       -0.08300   0.76671    0.14714   1.00
H2       -0.12895   0.77732    0.17038   1.00
H2       -0.19030   0.76066    0.11892   1.00
H2       0.05753    0.71698    0.38253   1.00
H2       0.01237    0.70336    0.40680   1.00
C2       0.10395    0.75243    0.25113   1.00
C3       0.08403    0.71747    0.25996   1.00
O2       0.10326    0.68711    0.27812   1.00
C3       0.08174    0.78550    0.24027   1.00
H1       0.09615    0.81241    0.23236   1.00
C3a      0.04287    0.71658    0.25876   1.00
H1       0.02798    0.69025    0.26776   1.00
C3b      0.04078    0.78488    0.24032   1.00
C4       0.02100    0.75028    0.24968   1.00
O3       -0.02167   0.77456    0.31672   1.00
C5       0.11280    0.65788    0.25074   1.00
H2       0.08609    0.64601    0.23633   1.00
C5       0.13326    0.62529    0.27306   1.00
H2       0.13274    0.66948    0.22780   1.00
H2       0.11068    0.60724    0.28790   1.00
H2       0.15093    0.63918    0.29654   1.00
C5       0.15918    0.59967    0.24680   1.00
H2       0.14176    0.58856    0.22181   1.00
C5       0.17547    0.56466    0.26977   1.00
H2       0.18493    0.61631    0.23561   1.00
C5       0.00983    0.75974    0.37643   1.00
H2       -0.01215   0.77450    0.39529   1.00
H2       0.03048    0.78268    0.36622   1.00
C5       0.03200    0.72814    0.39941   1.00
C5       0.04775    0.74533    0.43781   1.00
H2       -0.19286   0.71762    0.06515   1.00
C5       -0.18912   0.77494    0.03649   1.00
H2       -0.14323   0.73159    0.04809   1.00
C5       -0.03337   0.97681    0.29625   1.00
H2       -0.00551   0.96505    0.23963   1.00
H2       -0.05293   0.93981    0.24759   1.00
C5       0.19503    0.53590    0.24134   1.00
H2       0.19789    0.57537    0.29187   1.00
H2       0.15063    0.54934    0.28571   1.00
H2       0.06398    0.77365    0.43143   1.00
H2       0.02239    0.75149    0.45842   1.00
C5       0.07583    0.71596    0.45696   1.00
H2       -0.20116   0.79914    0.05586   1.00
H2       -0.16571   0.78741    0.01643   1.00
H2       -0.21374   0.76212    0.01816   1.00
H2       -0.01820   0.96565    0.32367   1.00
H2       -0.02229   1.00734    0.28911   1.00
H2       -0.06621   0.97785    0.30140   1.00
H2       0.21111    0.55288    0.21770   1.00
H2       0.21664    0.51686    0.25796   1.00
H2       0.17181    0.51666    0.22732   1.00
H2       0.10693    0.72223    0.44698   1.00
H2       0.07402    0.71884    0.49004   1.00
H2       0.06734    0.68507    0.44804   1.00
C5       0.63218    0.73348    0.37570   1.00
H2       0.64745    0.70819    0.36240   1.00
H2       0.61090    0.72094    0.39669   1.00
C5       0.66194    0.75939    0.39717   1.00
C5       0.67123    0.74271    0.43784   1.00
H2       0.65015    0.78947    0.40050   1.00
O3       0.48000    0.81761    0.27109   1.00
C4       0.52100    0.74972    0.24968   1.00
C3c      0.54243    0.73868    0.28282   1.00
H1       0.52725    0.72983    0.30901   1.00
C3d      0.54135    0.76062    0.21567   1.00
C3       0.58354    0.73938    0.28295   1.00
O2       0.60248    0.72368    0.31469   1.00
C3       0.58227    0.76207    0.21594   1.00
H1       0.59657    0.77194    0.18962   1.00
C2       0.60439    0.75140    0.24933   1.00
C5       0.47879    0.84561    0.24089   1.00
H2       0.44838    0.85467    0.23373   1.00
H2       0.49266    0.83418    0.21374   1.00
C5       0.50129    0.88139    0.25478   1.00
H2       0.53137    0.87214    0.26298   1.00
H2       0.48698    0.89277    0.28168   1.00
C5       0.50262    0.91301    0.22290   1.00
H2       0.47268    0.92219    0.21438   1.00
H2       0.51811    0.90212    0.19652   1.00
C5       0.52445    0.94923    0.23807   1.00
C5       0.51105    0.74298    0.15909   1.00
C5       0.61070    0.75334    0.34218   1.00
H2       0.49088    0.72269    0.17441   1.00
H2       0.53712    0.72622    0.14911   1.00
H2       0.58300    0.76671    0.35286   1.00
H2       0.62895    0.77732    0.32962   1.00
H2       0.69030    0.76066    0.38108   1.00
H2       0.44247    0.71698    0.11747   1.00
H2       0.48763    0.70336    0.09320   1.00
C2       0.39605    0.75243    0.24887   1.00
C3       0.41597    0.71747    0.24004   1.00
O2       0.39674    0.68711    0.22188   1.00
C3       0.41826    0.78550    0.25973   1.00
H1       0.40385    0.81241    0.26764   1.00
C3a      0.45713    0.71658    0.24124   1.00
H1       0.47202    0.69025    0.23224   1.00
C3b      0.45922    0.78488    0.25968   1.00
C4       0.47900    0.75028    0.25032   1.00
O3       0.52167    0.77456    0.18328   1.00
C5       0.38720    0.65788    0.24926   1.00
H2       0.41391    0.64601    0.26367   1.00
C5       0.36674    0.62529    0.22694   1.00
H2       0.36726    0.66948    0.27220   1.00
H2       0.38932    0.60724    0.21210   1.00
H2       0.34907    0.63918    0.20346   1.00
C5       0.34082    0.59967    0.25320   1.00
H2       0.35824    0.58856    0.27819   1.00
C5       0.32453    0.56466    0.23023   1.00
H2       0.31507    0.61631    0.26439   1.00
C5       0.49017    0.75974    0.12357   1.00
H2       0.51215    0.77450    0.10471   1.00
H2       0.46952    0.78268    0.13378   1.00
C5       0.46800    0.72814    0.10059   1.00
C5       0.45225    0.74533    0.06219   1.00
H2       0.69286    0.71762    0.43485   1.00
C5       0.68912    0.77494    0.46351   1.00
H2       0.64323    0.73159    0.45191   1.00
C5       0.53337    0.97681    0.20375   1.00
H2       0.50551    0.96505    0.26037   1.00
H2       0.55293    0.93981    0.25241   1.00
C5       0.30497    0.53590    0.25866   1.00
H2       0.30211    0.57537    0.20813   1.00
H2       0.34937    0.54934    0.21429   1.00
H2       0.43602    0.77365    0.06857   1.00
H2       0.47761    0.75149    0.04158   1.00
C5       0.42417    0.71596    0.04304   1.00
H2       0.70116    0.79914    0.44414   1.00
H2       0.66571    0.78741    0.48357   1.00
H2       0.71374    0.76212    0.48184   1.00
H2       0.51820    0.96565    0.17633   1.00
H2       0.52229    1.00734    0.21089   1.00
H2       0.56621    0.97785    0.19860   1.00
H2       0.28889    0.55288    0.28230   1.00
H2       0.28336    0.51686    0.24204   1.00
H2       0.32819    0.51666    0.27268   1.00
H2       0.39307    0.72223    0.05302   1.00
H2       0.42598    0.71884    0.00996   1.00
H2       0.43266    0.68507    0.05196   1.00
C5       0.12430    0.36782    0.23348   1.00
H2       0.13760    0.35255    0.20819   1.00
H2       0.10331    0.38910    0.22094   1.00
C5       0.10283    0.33806    0.25939   1.00
C5       0.06216    0.32877    0.24271   1.00
H2       0.09950    0.34985    0.28947   1.00
O3       0.22891    0.52000    0.31761   1.00
C4       0.25032    0.47900    0.24972   1.00
C3c      0.21718    0.45757    0.23868   1.00
H1       0.19099    0.47275    0.22983   1.00
C3d      0.28433    0.45865    0.26062   1.00
C3       0.21705    0.41646    0.23938   1.00
O2       0.18531    0.39752    0.22368   1.00
C3       0.28406    0.41773    0.26207   1.00
H1       0.31038    0.40343    0.27194   1.00
C2       0.25067    0.39561    0.25140   1.00
C5       0.25911    0.52121    0.34561   1.00
H2       0.26627    0.55162    0.35467   1.00
H2       0.28626    0.50734    0.33418   1.00
C5       0.24522    0.49871    0.38139   1.00
H2       0.23702    0.46863    0.37214   1.00
H2       0.21832    0.51302    0.39277   1.00
C5       0.27710    0.49738    0.41301   1.00
H2       0.28562    0.52732    0.42219   1.00
H2       0.30348    0.48189    0.40212   1.00
C5       0.26193    0.47555    0.44923   1.00
C5       0.34091    0.48895    0.24298   1.00
C5       0.15782    0.38930    0.25334   1.00
H2       0.32559    0.50912    0.22269   1.00
H2       0.35089    0.46288    0.22622   1.00
H2       0.14714    0.41700    0.26671   1.00
H2       0.17038    0.37105    0.27732   1.00
H2       0.11892    0.30970    0.26066   1.00
H2       0.38253    0.55753    0.21698   1.00
H2       0.40680    0.51237    0.20336   1.00
C2       0.25113    0.60395    0.25243   1.00
C3       0.25996    0.58403    0.21747   1.00
O2       0.27812    0.60326    0.18711   1.00
C3       0.24027    0.58174    0.28550   1.00
H1       0.23236    0.59615    0.31241   1.00
C3a      0.25876    0.54287    0.21658   1.00
H1       0.26776    0.52798    0.19025   1.00
C3b      0.24032    0.54078    0.28488   1.00
C4       0.24968    0.52100    0.25028   1.00
O3       0.31672    0.47833    0.27456   1.00
C5       0.25074    0.61280    0.15788   1.00
H2       0.23633    0.58609    0.14601   1.00
C5       0.27306    0.63326    0.12529   1.00
H2       0.22780    0.63274    0.16948   1.00
H2       0.28790    0.61068    0.10724   1.00
H2       0.29654    0.65093    0.13918   1.00
C5       0.24680    0.65918    0.09967   1.00
H2       0.22181    0.64176    0.08856   1.00
C5       0.26977    0.67547    0.06466   1.00
H2       0.23561    0.68493    0.11631   1.00
C5       0.37643    0.50983    0.25974   1.00
H2       0.39529    0.48785    0.27450   1.00
H2       0.36622    0.53048    0.28268   1.00
C5       0.39941    0.53200    0.22814   1.00
C5       0.43781    0.54775    0.24533   1.00
H2       0.06515    0.30714    0.21762   1.00
C5       0.03649    0.31088    0.27494   1.00
H2       0.04809    0.35677    0.23159   1.00
C5       0.29625    0.46663    0.47681   1.00
H2       0.23963    0.49449    0.46505   1.00
H2       0.24759    0.44707    0.43981   1.00
C5       0.24134    0.69503    0.03590   1.00
H2       0.29187    0.69789    0.07537   1.00
H2       0.28571    0.65063    0.04934   1.00
H2       0.43143    0.56398    0.27365   1.00
H2       0.45842    0.52239    0.25149   1.00
C5       0.45696    0.57583    0.21596   1.00
H2       0.05586    0.29884    0.29914   1.00
H2       0.01643    0.33429    0.28741   1.00
H2       0.01816    0.28626    0.26212   1.00
H2       0.32367    0.48180    0.46565   1.00
H2       0.28911    0.47771    0.50734   1.00
H2       0.30140    0.43379    0.47785   1.00
H2       0.21770    0.71111    0.05288   1.00
H2       0.25796    0.71664    0.01686   1.00
H2       0.22732    0.67181    0.01666   1.00
H2       0.44698    0.60693    0.22223   1.00
H2       0.49004    0.57402    0.21884   1.00
H2       0.44804    0.56734    0.18507   1.00
C5       0.23348    0.62430    -0.13218   1.00
H2       0.20819    0.63760    -0.14745   1.00
H2       0.22094    0.60331    -0.11090   1.00
C5       0.25939    0.60283    -0.16194   1.00
C5       0.24271    0.56216    -0.17123   1.00
H2       0.28947    0.59950    -0.15015   1.00
O3       0.31761    0.72891    0.02000   1.00
C4       0.24972    0.75032    -0.02100   1.00
C3c      0.23868    0.71718    -0.04243   1.00
H1       0.22983    0.69099    -0.02725   1.00
C3d      0.26062    0.78433    -0.04135   1.00
C3       0.23938    0.71705    -0.08354   1.00
O2       0.22368    0.68531    -0.10248   1.00
C3       0.26207    0.78406    -0.08227   1.00
H1       0.27194    0.81038    -0.09657   1.00
C2       0.25140    0.75067    -0.10439   1.00
C5       0.34561    0.75911    0.02121   1.00
H2       0.35467    0.76627    0.05162   1.00
H2       0.33418    0.78626    0.00734   1.00
C5       0.38139    0.74522    -0.00129   1.00
H2       0.37214    0.73702    -0.03137   1.00
H2       0.39277    0.71832    0.01302   1.00
C5       0.41301    0.77710    -0.00262   1.00
H2       0.42219    0.78562    0.02732   1.00
H2       0.40212    0.80348    -0.01811   1.00
C5       0.44923    0.76193    -0.02445   1.00
C5       0.24298    0.84091    -0.01105   1.00
C5       0.25334    0.65782    -0.11070   1.00
H2       0.22269    0.82559    0.00912   1.00
H2       0.22622    0.85089    -0.03712   1.00
H2       0.26671    0.64714    -0.08300   1.00
H2       0.27732    0.67038    -0.12895   1.00
H2       0.26066    0.61892    -0.19030   1.00
H2       0.21698    0.88253    0.05753   1.00
H2       0.20336    0.90680    0.01237   1.00
C2       0.25243    0.75113    0.10395   1.00
C3       0.21747    0.75996    0.08403   1.00
O2       0.18711    0.77812    0.10326   1.00
C3       0.28550    0.74027    0.08174   1.00
H1       0.31241    0.73236    0.09615   1.00
C3a      0.21658    0.75876    0.04287   1.00
H1       0.19025    0.76776    0.02798   1.00
C3b      0.28488    0.74032    0.04078   1.00
C4       0.25028    0.74968    0.02100   1.00
O3       0.27456    0.81672    -0.02167   1.00
C5       0.15788    0.75074    0.11280   1.00
H2       0.14601    0.73633    0.08609   1.00
C5       0.12529    0.77306    0.13326   1.00
H2       0.16948    0.72780    0.13274   1.00
H2       0.10724    0.78790    0.11068   1.00
H2       0.13918    0.79654    0.15093   1.00
C5       0.09967    0.74680    0.15918   1.00
H2       0.08856    0.72181    0.14176   1.00
C5       0.06466    0.76977    0.17547   1.00
H2       0.11631    0.73561    0.18493   1.00
C5       0.25974    0.87643    0.00983   1.00
H2       0.27450    0.89529    -0.01215   1.00
H2       0.28268    0.86622    0.03048   1.00
C5       0.22814    0.89941    0.03200   1.00
C5       0.24533    0.93781    0.04775   1.00
H2       0.21762    0.56515    -0.19286   1.00
C5       0.27494    0.53649    -0.18912   1.00
H2       0.23159    0.54809    -0.14323   1.00
C5       0.47681    0.79625    -0.03337   1.00
H2       0.46505    0.73963    -0.00551   1.00
H2       0.43981    0.74759    -0.05293   1.00
C5       0.03590    0.74134    0.19503   1.00
H2       0.07537    0.79187    0.19789   1.00
H2       0.04934    0.78571    0.15063   1.00
H2       0.27365    0.93143    0.06398   1.00
H2       0.25149    0.95842    0.02239   1.00
C5       0.21596    0.95696    0.07583   1.00
H2       0.29914    0.55586    -0.20116   1.00
H2       0.28741    0.51643    -0.16571   1.00
H2       0.26212    0.51816    -0.21374   1.00
H2       0.46565    0.82367    -0.01820   1.00
H2       0.50734    0.78911    -0.02229   1.00
H2       0.47785    0.80140    -0.06621   1.00
H2       0.05288    0.71770    0.21111   1.00
H2       0.01686    0.75796    0.21664   1.00
H2       0.01666    0.72732    0.17181   1.00
H2       0.22223    0.94698    0.10693   1.00
H2       0.21884    0.99004    0.07402   1.00
H2       0.18507    0.94804    0.06734   1.00
C5       0.73348    0.37570    0.63218   1.00
H2       0.70819    0.36240    0.64745   1.00
H2       0.72094    0.39669    0.61090   1.00
C5       0.75939    0.39717    0.66194   1.00
C5       0.74271    0.43784    0.67123   1.00
H2       0.78947    0.40050    0.65015   1.00
O3       0.81761    0.27109    0.48000   1.00
C4       0.74972    0.24968    0.52100   1.00
C3c      0.73868    0.28282    0.54243   1.00
H1       0.72983    0.30901    0.52725   1.00
C3d      0.76062    0.21567    0.54135   1.00
C3       0.73938    0.28295    0.58354   1.00
O2       0.72368    0.31469    0.60248   1.00
C3       0.76207    0.21594    0.58227   1.00
H1       0.77194    0.18962    0.59657   1.00
C2       0.75140    0.24933    0.60439   1.00
C5       0.84561    0.24089    0.47879   1.00
H2       0.85467    0.23373    0.44838   1.00
H2       0.83418    0.21374    0.49266   1.00
C5       0.88139    0.25478    0.50129   1.00
H2       0.87214    0.26298    0.53137   1.00
H2       0.89277    0.28168    0.48698   1.00
C5       0.91301    0.22290    0.50262   1.00
H2       0.92219    0.21438    0.47268   1.00
H2       0.90212    0.19652    0.51811   1.00
C5       0.94923    0.23807    0.52445   1.00
C5       0.74298    0.15909    0.51105   1.00
C5       0.75334    0.34218    0.61070   1.00
H2       0.72269    0.17441    0.49088   1.00
H2       0.72622    0.14911    0.53712   1.00
H2       0.76671    0.35286    0.58300   1.00
H2       0.77732    0.32962    0.62895   1.00
H2       0.76066    0.38108    0.69030   1.00
H2       0.71698    0.11747    0.44247   1.00
H2       0.70336    0.09320    0.48763   1.00
C2       0.75243    0.24887    0.39605   1.00
C3       0.71747    0.24004    0.41597   1.00
O2       0.68711    0.22188    0.39674   1.00
C3       0.78550    0.25973    0.41826   1.00
H1       0.81241    0.26764    0.40385   1.00
C3a      0.71658    0.24124    0.45713   1.00
H1       0.69025    0.23224    0.47202   1.00
C3b      0.78488    0.25968    0.45922   1.00
C4       0.75028    0.25032    0.47900   1.00
O3       0.77456    0.18328    0.52167   1.00
C5       0.65788    0.24926    0.38720   1.00
H2       0.64601    0.26367    0.41391   1.00
C5       0.62529    0.22694    0.36674   1.00
H2       0.66948    0.27220    0.36726   1.00
H2       0.60724    0.21210    0.38932   1.00
H2       0.63918    0.20346    0.34907   1.00
C5       0.59967    0.25320    0.34082   1.00
H2       0.58856    0.27819    0.35824   1.00
C5       0.56466    0.23023    0.32453   1.00
H2       0.61631    0.26439    0.31507   1.00
C5       0.75974    0.12357    0.49017   1.00
H2       0.77450    0.10471    0.51215   1.00
H2       0.78268    0.13378    0.46952   1.00
C5       0.72814    0.10059    0.46800   1.00
C5       0.74533    0.06219    0.45225   1.00
H2       0.71762    0.43485    0.69286   1.00
C5       0.77494    0.46351    0.68912   1.00
H2       0.73159    0.45191    0.64323   1.00
C5       0.97681    0.20375    0.53337   1.00
H2       0.96505    0.26037    0.50551   1.00
H2       0.93981    0.25241    0.55293   1.00
C5       0.53590    0.25866    0.30497   1.00
H2       0.57537    0.20813    0.30211   1.00
H2       0.54934    0.21429    0.34937   1.00
H2       0.77365    0.06857    0.43602   1.00
H2       0.75149    0.04158    0.47761   1.00
C5       0.71596    0.04304    0.42417   1.00
H2       0.79914    0.44414    0.70116   1.00
H2       0.78741    0.48357    0.66571   1.00
H2       0.76212    0.48184    0.71374   1.00
H2       0.96565    0.17633    0.51820   1.00
H2       1.00734    0.21089    0.52229   1.00
H2       0.97785    0.19860    0.56621   1.00
H2       0.55288    0.28230    0.28889   1.00
H2       0.51686    0.24204    0.28336   1.00
H2       0.51666    0.27268    0.32819   1.00
H2       0.72223    0.05302    0.39307   1.00
H2       0.71884    0.00996    0.42598   1.00
H2       0.68507    0.05196    0.43266   1.00
C5       0.87570    0.63218    0.23348   1.00
H2       0.86240    0.64745    0.20819   1.00
H2       0.89669    0.61090    0.22094   1.00
C5       0.89717    0.66194    0.25939   1.00
C5       0.93784    0.67123    0.24271   1.00
H2       0.90050    0.65015    0.28947   1.00
O3       0.77109    0.48000    0.31761   1.00
C4       0.74968    0.52100    0.24972   1.00
C3c      0.78282    0.54243    0.23868   1.00
H1       0.80901    0.52725    0.22983   1.00
C3d      0.71567    0.54135    0.26062   1.00
C3       0.78295    0.58354    0.23938   1.00
O2       0.81469    0.60248    0.22368   1.00
C3       0.71594    0.58227    0.26207   1.00
H1       0.68962    0.59657    0.27194   1.00
C2       0.74933    0.60439    0.25140   1.00
C5       0.74089    0.47879    0.34561   1.00
H2       0.73373    0.44838    0.35467   1.00
H2       0.71374    0.49266    0.33418   1.00
C5       0.75478    0.50129    0.38139   1.00
H2       0.76298    0.53137    0.37214   1.00
H2       0.78168    0.48698    0.39277   1.00
C5       0.72290    0.50262    0.41301   1.00
H2       0.71438    0.47268    0.42219   1.00
H2       0.69652    0.51811    0.40212   1.00
C5       0.73807    0.52445    0.44923   1.00
C5       0.65909    0.51105    0.24298   1.00
C5       0.84218    0.61070    0.25334   1.00
H2       0.67441    0.49088    0.22269   1.00
H2       0.64911    0.53712    0.22622   1.00
H2       0.85286    0.58300    0.26671   1.00
H2       0.82962    0.62895    0.27732   1.00
H2       0.88108    0.69030    0.26066   1.00
H2       0.61747    0.44247    0.21698   1.00
H2       0.59320    0.48763    0.20336   1.00
C2       0.74887    0.39605    0.25243   1.00
C3       0.74004    0.41597    0.21747   1.00
O2       0.72188    0.39674    0.18711   1.00
C3       0.75973    0.41826    0.28550   1.00
H1       0.76764    0.40385    0.31241   1.00
C3a      0.74124    0.45713    0.21658   1.00
H1       0.73224    0.47202    0.19025   1.00
C3b      0.75968    0.45922    0.28488   1.00
C4       0.75032    0.47900    0.25028   1.00
O3       0.68328    0.52167    0.27456   1.00
C5       0.74926    0.38720    0.15788   1.00
H2       0.76367    0.41391    0.14601   1.00
C5       0.72694    0.36674    0.12529   1.00
H2       0.77220    0.36726    0.16948   1.00
H2       0.71210    0.38932    0.10724   1.00
H2       0.70346    0.34907    0.13918   1.00
C5       0.75320    0.34082    0.09967   1.00
H2       0.77819    0.35824    0.08856   1.00
C5       0.73023    0.32453    0.06466   1.00
H2       0.76439    0.31507    0.11631   1.00
C5       0.62357    0.49017    0.25974   1.00
H2       0.60471    0.51215    0.27450   1.00
H2       0.63378    0.46952    0.28268   1.00
C5       0.60059    0.46800    0.22814   1.00
C5       0.56219    0.45225    0.24533   1.00
H2       0.93485    0.69286    0.21762   1.00
C5       0.96351    0.68912    0.27494   1.00
H2       0.95191    0.64323    0.23159   1.00
C5       0.70375    0.53337    0.47681   1.00
H2       0.76037    0.50551    0.46505   1.00
H2       0.75241    0.55293    0.43981   1.00
C5       0.75866    0.30497    0.03590   1.00
H2       0.70813    0.30211    0.07537   1.00
H2       0.71429    0.34937    0.04934   1.00
H2       0.56857    0.43602    0.27365   1.00
H2       0.54158    0.47761    0.25149   1.00
C5       0.54304    0.42417    0.21596   1.00
H2       0.94414    0.70116    0.29914   1.00
H2       0.98357    0.66571    0.28741   1.00
H2       0.98184    0.71374    0.26212   1.00
H2       0.67633    0.51820    0.46565   1.00
H2       0.71089    0.52229    0.50734   1.00
H2       0.69860    0.56621    0.47785   1.00
H2       0.78230    0.28889    0.05288   1.00
H2       0.74204    0.28336    0.01686   1.00
H2       0.77268    0.32819    0.01666   1.00
H2       0.55302    0.39307    0.22223   1.00
H2       0.50996    0.42598    0.21884   1.00
H2       0.55196    0.43266    0.18507   1.00
C5       0.36782    0.23348    0.12430   1.00
H2       0.35255    0.20819    0.13760   1.00
H2       0.38910    0.22094    0.10331   1.00
C5       0.33806    0.25939    0.10283   1.00
C5       0.32877    0.24271    0.06216   1.00
H2       0.34985    0.28947    0.09950   1.00
O3       0.52000    0.31761    0.22891   1.00
C4       0.47900    0.24972    0.25032   1.00
C3c      0.45757    0.23868    0.21718   1.00
H1       0.47275    0.22983    0.19099   1.00
C3d      0.45865    0.26062    0.28433   1.00
C3       0.41646    0.23938    0.21705   1.00
O2       0.39752    0.22368    0.18531   1.00
C3       0.41773    0.26207    0.28406   1.00
H1       0.40343    0.27194    0.31038   1.00
C2       0.39561    0.25140    0.25067   1.00
C5       0.52121    0.34561    0.25911   1.00
H2       0.55162    0.35467    0.26627   1.00
H2       0.50734    0.33418    0.28626   1.00
C5       0.49871    0.38139    0.24522   1.00
H2       0.46863    0.37214    0.23702   1.00
H2       0.51302    0.39277    0.21832   1.00
C5       0.49738    0.41301    0.27710   1.00
H2       0.52732    0.42219    0.28562   1.00
H2       0.48189    0.40212    0.30348   1.00
C5       0.47555    0.44923    0.26193   1.00
C5       0.48895    0.24298    0.34091   1.00
C5       0.38930    0.25334    0.15782   1.00
H2       0.50912    0.22269    0.32559   1.00
H2       0.46288    0.22622    0.35089   1.00
H2       0.41700    0.26671    0.14714   1.00
H2       0.37105    0.27732    0.17038   1.00
H2       0.30970    0.26066    0.11892   1.00
H2       0.55753    0.21698    0.38253   1.00
H2       0.51237    0.20336    0.40680   1.00
C2       0.60395    0.25243    0.25113   1.00
C3       0.58403    0.21747    0.25996   1.00
O2       0.60326    0.18711    0.27812   1.00
C3       0.58174    0.28550    0.24027   1.00
H1       0.59615    0.31241    0.23236   1.00
C3a      0.54287    0.21658    0.25876   1.00
H1       0.52798    0.19025    0.26776   1.00
C3b      0.54078    0.28488    0.24032   1.00
C4       0.52100    0.25028    0.24968   1.00
O3       0.47833    0.27456    0.31672   1.00
C5       0.61280    0.15788    0.25074   1.00
H2       0.58609    0.14601    0.23633   1.00
C5       0.63326    0.12529    0.27306   1.00
H2       0.63274    0.16948    0.22780   1.00
H2       0.61068    0.10724    0.28790   1.00
H2       0.65093    0.13918    0.29654   1.00
C5       0.65918    0.09967    0.24680   1.00
H2       0.64176    0.08856    0.22181   1.00
C5       0.67547    0.06466    0.26977   1.00
H2       0.68493    0.11631    0.23561   1.00
C5       0.50983    0.25974    0.37643   1.00
H2       0.48785    0.27450    0.39529   1.00
H2       0.53048    0.28268    0.36622   1.00
C5       0.53200    0.22814    0.39941   1.00
C5       0.54775    0.24533    0.43781   1.00
H2       0.30714    0.21762    0.06515   1.00
C5       0.31088    0.27494    0.03649   1.00
H2       0.35677    0.23159    0.04809   1.00
C5       0.46663    0.47681    0.29625   1.00
H2       0.49449    0.46505    0.23963   1.00
H2       0.44707    0.43981    0.24759   1.00
C5       0.69503    0.03590    0.24134   1.00
H2       0.69789    0.07537    0.29187   1.00
H2       0.65063    0.04934    0.28571   1.00
H2       0.56398    0.27365    0.43143   1.00
H2       0.52239    0.25149    0.45842   1.00
C5       0.57583    0.21596    0.45696   1.00
H2       0.29884    0.29914    0.05586   1.00
H2       0.33429    0.28741    0.01643   1.00
H2       0.28626    0.26212    0.01816   1.00
H2       0.48180    0.46565    0.32367   1.00
H2       0.47771    0.50734    0.28911   1.00
H2       0.43379    0.47785    0.30140   1.00
H2       0.71111    0.05288    0.21770   1.00
H2       0.71664    0.01686    0.25796   1.00
H2       0.67181    0.01666    0.22732   1.00
H2       0.60693    0.22223    0.44698   1.00
H2       0.57402    0.21884    0.49004   1.00
H2       0.56734    0.18507    0.44804   1.00
C5       1.13218    0.23348    0.37570   1.00
H2       1.14745    0.20819    0.36240   1.00
H2       1.11090    0.22094    0.39669   1.00
C5       1.16194    0.25939    0.39717   1.00
C5       1.17123    0.24271    0.43784   1.00
H2       1.15015    0.28947    0.40050   1.00
O3       0.98000    0.31761    0.27109   1.00
C4       1.02100    0.24972    0.24968   1.00
C3c      1.04243    0.23868    0.28282   1.00
H1       1.02725    0.22983    0.30901   1.00
C3d      1.04135    0.26062    0.21567   1.00
C3       1.08354    0.23938    0.28295   1.00
O2       1.10248    0.22368    0.31469   1.00
C3       1.08227    0.26207    0.21594   1.00
H1       1.09657    0.27194    0.18962   1.00
C2       1.10439    0.25140    0.24933   1.00
C5       0.97879    0.34561    0.24089   1.00
H2       0.94838    0.35467    0.23373   1.00
H2       0.99266    0.33418    0.21374   1.00
C5       1.00129    0.38139    0.25478   1.00
H2       1.03137    0.37214    0.26298   1.00
H2       0.98698    0.39277    0.28168   1.00
C5       1.00262    0.41301    0.22290   1.00
H2       0.97268    0.42219    0.21438   1.00
H2       1.01811    0.40212    0.19652   1.00
C5       1.02445    0.44923    0.23807   1.00
C5       1.01105    0.24298    0.15909   1.00
C5       1.11070    0.25334    0.34218   1.00
H2       0.99088    0.22269    0.17441   1.00
H2       1.03712    0.22622    0.14911   1.00
H2       1.08300    0.26671    0.35286   1.00
H2       1.12895    0.27732    0.32962   1.00
H2       1.19030    0.26066    0.38108   1.00
H2       0.94247    0.21698    0.11747   1.00
H2       0.98763    0.20336    0.09320   1.00
C2       0.89605    0.25243    0.24887   1.00
C3       0.91597    0.21747    0.24004   1.00
O2       0.89674    0.18711    0.22188   1.00
C3       0.91826    0.28550    0.25973   1.00
H1       0.90385    0.31241    0.26764   1.00
C3a      0.95713    0.21658    0.24124   1.00
H1       0.97202    0.19025    0.23224   1.00
C3b      0.95922    0.28488    0.25968   1.00
C4       0.97900    0.25028    0.25032   1.00
O3       1.02167    0.27456    0.18328   1.00
C5       0.88720    0.15788    0.24926   1.00
H2       0.91391    0.14601    0.26367   1.00
C5       0.86674    0.12529    0.22694   1.00
H2       0.86726    0.16948    0.27220   1.00
H2       0.88932    0.10724    0.21210   1.00
H2       0.84907    0.13918    0.20346   1.00
C5       0.84082    0.09967    0.25320   1.00
H2       0.85824    0.08856    0.27819   1.00
C5       0.82453    0.06466    0.23023   1.00
H2       0.81507    0.11631    0.26439   1.00
C5       0.99017    0.25974    0.12357   1.00
H2       1.01215    0.27450    0.10471   1.00
H2       0.96952    0.28268    0.13378   1.00
C5       0.96800    0.22814    0.10059   1.00
C5       0.95225    0.24533    0.06219   1.00
H2       1.19286    0.21762    0.43485   1.00
C5       1.18912    0.27494    0.46351   1.00
H2       1.14323    0.23159    0.45191   1.00
C5       1.03337    0.47681    0.20375   1.00
H2       1.00551    0.46505    0.26037   1.00
H2       1.05293    0.43981    0.25241   1.00
C5       0.80497    0.03590    0.25866   1.00
H2       0.80211    0.07537    0.20813   1.00
H2       0.84937    0.04934    0.21429   1.00
H2       0.93602    0.27365    0.06857   1.00
H2       0.97761    0.25149    0.04158   1.00
C5       0.92417    0.21596    0.04304   1.00
H2       1.20116    0.29914    0.44414   1.00
H2       1.16571    0.28741    0.48357   1.00
H2       1.21374    0.26212    0.48184   1.00
H2       1.01820    0.46565    0.17633   1.00
H2       1.02229    0.50734    0.21089   1.00
H2       1.06621    0.47785    0.19860   1.00
H2       0.78889    0.05288    0.28230   1.00
H2       0.78336    0.01686    0.24204   1.00
H2       0.82819    0.01666    0.27268   1.00
H2       0.89307    0.22223    0.05302   1.00
H2       0.92598    0.21884    0.00996   1.00
H2       0.93266    0.18507    0.05196   1.00
C5       0.62430    -0.13218   0.23348   1.00
H2       0.63760    -0.14745   0.20819   1.00
H2       0.60331    -0.11090   0.22094   1.00
C5       0.60283    -0.16194   0.25939   1.00
C5       0.56216    -0.17123   0.24271   1.00
H2       0.59950    -0.15015   0.28947   1.00
O3       0.72891    0.02000    0.31761   1.00
C4       0.75032    -0.02100   0.24972   1.00
C3c      0.71718    -0.04243   0.23868   1.00
H1       0.69099    -0.02725   0.22983   1.00
C3d      0.78433    -0.04135   0.26062   1.00
C3       0.71705    -0.08354   0.23938   1.00
O2       0.68531    -0.10248   0.22368   1.00
C3       0.78406    -0.08227   0.26207   1.00
H1       0.81038    -0.09657   0.27194   1.00
C2       0.75067    -0.10439   0.25140   1.00
C5       0.75911    0.02121    0.34561   1.00
H2       0.76627    0.05162    0.35467   1.00
H2       0.78626    0.00734    0.33418   1.00
C5       0.74522    -0.00129   0.38139   1.00
H2       0.73702    -0.03137   0.37214   1.00
H2       0.71832    0.01302    0.39277   1.00
C5       0.77710    -0.00262   0.41301   1.00
H2       0.78562    0.02732    0.42219   1.00
H2       0.80348    -0.01811   0.40212   1.00
C5       0.76193    -0.02445   0.44923   1.00
C5       0.84091    -0.01105   0.24298   1.00
C5       0.65782    -0.11070   0.25334   1.00
H2       0.82559    0.00912    0.22269   1.00
H2       0.85089    -0.03712   0.22622   1.00
H2       0.64714    -0.08300   0.26671   1.00
H2       0.67038    -0.12895   0.27732   1.00
H2       0.61892    -0.19030   0.26066   1.00
H2       0.88253    0.05753    0.21698   1.00
H2       0.90680    0.01237    0.20336   1.00
C2       0.75113    0.10395    0.25243   1.00
C3       0.75996    0.08403    0.21747   1.00
O2       0.77812    0.10326    0.18711   1.00
C3       0.74027    0.08174    0.28550   1.00
H1       0.73236    0.09615    0.31241   1.00
C3a      0.75876    0.04287    0.21658   1.00
H1       0.76776    0.02798    0.19025   1.00
C3b      0.74032    0.04078    0.28488   1.00
C4       0.74968    0.02100    0.25028   1.00
O3       0.81672    -0.02167   0.27456   1.00
C5       0.75074    0.11280    0.15788   1.00
H2       0.73633    0.08609    0.14601   1.00
C5       0.77306    0.13326    0.12529   1.00
H2       0.72780    0.13274    0.16948   1.00
H2       0.78790    0.11068    0.10724   1.00
H2       0.79654    0.15093    0.13918   1.00
C5       0.74680    0.15918    0.09967   1.00
H2       0.72181    0.14176    0.08856   1.00
C5       0.76977    0.17547    0.06466   1.00
H2       0.73561    0.18493    0.11631   1.00
C5       0.87643    0.00983    0.25974   1.00
H2       0.89529    -0.01215   0.27450   1.00
H2       0.86622    0.03048    0.28268   1.00
C5       0.89941    0.03200    0.22814   1.00
C5       0.93781    0.04775    0.24533   1.00
H2       0.56515    -0.19286   0.21762   1.00
C5       0.53649    -0.18912   0.27494   1.00
H2       0.54809    -0.14323   0.23159   1.00
C5       0.79625    -0.03337   0.47681   1.00
H2       0.73963    -0.00551   0.46505   1.00
H2       0.74759    -0.05293   0.43981   1.00
C5       0.74134    0.19503    0.03590   1.00
H2       0.79187    0.19789    0.07537   1.00
H2       0.78571    0.15063    0.04934   1.00
H2       0.93143    0.06398    0.27365   1.00
H2       0.95842    0.02239    0.25149   1.00
C5       0.95696    0.07583    0.21596   1.00
H2       0.55586    -0.20116   0.29914   1.00
H2       0.51643    -0.16571   0.28741   1.00
H2       0.51816    -0.21374   0.26212   1.00
H2       0.82367    -0.01820   0.46565   1.00
H2       0.78911    -0.02229   0.50734   1.00
H2       0.80140    -0.06621   0.47785   1.00
H2       0.71770    0.21111    0.05288   1.00
H2       0.75796    0.21664    0.01686   1.00
H2       0.72732    0.17181    0.01666   1.00
H2       0.94698    0.10693    0.22223   1.00
H2       0.99004    0.07402    0.21884   1.00
H2       0.94804    0.06734    0.18507   1.00
C5       0.73348    0.12430    -0.13218   1.00
H2       0.70819    0.13760    -0.14745   1.00
H2       0.72094    0.10331    -0.11090   1.00
C5       0.75939    0.10283    -0.16194   1.00
C5       0.74271    0.06216    -0.17123   1.00
H2       0.78947    0.09950    -0.15015   1.00
O3       0.81761    0.22891    0.02000   1.00
C4       0.74972    0.25032    -0.02100   1.00
C3c      0.73868    0.21718    -0.04243   1.00
H1       0.72983    0.19099    -0.02725   1.00
C3d      0.76062    0.28433    -0.04135   1.00
C3       0.73938    0.21705    -0.08354   1.00
O2       0.72368    0.18531    -0.10248   1.00
C3       0.76207    0.28406    -0.08227   1.00
H1       0.77194    0.31038    -0.09657   1.00
C2       0.75140    0.25067    -0.10439   1.00
C5       0.84561    0.25911    0.02121   1.00
H2       0.85467    0.26627    0.05162   1.00
H2       0.83418    0.28626    0.00734   1.00
C5       0.88139    0.24522    -0.00129   1.00
H2       0.87214    0.23702    -0.03137   1.00
H2       0.89277    0.21832    0.01302   1.00
C5       0.91301    0.27710    -0.00262   1.00
H2       0.92219    0.28562    0.02732   1.00
H2       0.90212    0.30348    -0.01811   1.00
C5       0.94923    0.26193    -0.02445   1.00
C5       0.74298    0.34091    -0.01105   1.00
C5       0.75334    0.15782    -0.11070   1.00
H2       0.72269    0.32559    0.00912   1.00
H2       0.72622    0.35089    -0.03712   1.00
H2       0.76671    0.14714    -0.08300   1.00
H2       0.77732    0.17038    -0.12895   1.00
H2       0.76066    0.11892    -0.19030   1.00
H2       0.71698    0.38253    0.05753   1.00
H2       0.70336    0.40680    0.01237   1.00
C2       0.75243    0.25113    0.10395   1.00
C3       0.71747    0.25996    0.08403   1.00
O2       0.68711    0.27812    0.10326   1.00
C3       0.78550    0.24027    0.08174   1.00
H1       0.81241    0.23236    0.09615   1.00
C3a      0.71658    0.25876    0.04287   1.00
H1       0.69025    0.26776    0.02798   1.00
C3b      0.78488    0.24032    0.04078   1.00
C4       0.75028    0.24968    0.02100   1.00
O3       0.77456    0.31672    -0.02167   1.00
C5       0.65788    0.25074    0.11280   1.00
H2       0.64601    0.23633    0.08609   1.00
C5       0.62529    0.27306    0.13326   1.00
H2       0.66948    0.22780    0.13274   1.00
H2       0.60724    0.28790    0.11068   1.00
H2       0.63918    0.29654    0.15093   1.00
C5       0.59967    0.24680    0.15918   1.00
H2       0.58856    0.22181    0.14176   1.00
C5       0.56466    0.26977    0.17547   1.00
H2       0.61631    0.23561    0.18493   1.00
C5       0.75974    0.37643    0.00983   1.00
H2       0.77450    0.39529    -0.01215   1.00
H2       0.78268    0.36622    0.03048   1.00
C5       0.72814    0.39941    0.03200   1.00
C5       0.74533    0.43781    0.04775   1.00
H2       0.71762    0.06515    -0.19286   1.00
C5       0.77494    0.03649    -0.18912   1.00
H2       0.73159    0.04809    -0.14323   1.00
C5       0.97681    0.29625    -0.03337   1.00
H2       0.96505    0.23963    -0.00551   1.00
H2       0.93981    0.24759    -0.05293   1.00
C5       0.53590    0.24134    0.19503   1.00
H2       0.57537    0.29187    0.19789   1.00
H2       0.54934    0.28571    0.15063   1.00
H2       0.77365    0.43143    0.06398   1.00
H2       0.75149    0.45842    0.02239   1.00
C5       0.71596    0.45696    0.07583   1.00
H2       0.79914    0.05586    -0.20116   1.00
H2       0.78741    0.01643    -0.16571   1.00
H2       0.76212    0.01816    -0.21374   1.00
H2       0.96565    0.32367    -0.01820   1.00
H2       1.00734    0.28911    -0.02229   1.00
H2       0.97785    0.30140    -0.06621   1.00
H2       0.55288    0.21770    0.21111   1.00
H2       0.51686    0.25796    0.21664   1.00
H2       0.51666    0.22732    0.17181   1.00
H2       0.72223    0.44698    0.10693   1.00
H2       0.71884    0.49004    0.07402   1.00
H2       0.68507    0.44804    0.06734   1.00
