data_IRMOF10_SG202_Ligand9_label_j.

_audit_creation_method             'generated by an auxiliary program of Tobunporous'

_symmetry_space_group_name_H-M     'P 1'
_symmetry_Int_Tables_number        1
_symmetry_cell_setting             triclinic

_cell_length_a                    34.2800
_cell_length_b                    34.2800
_cell_length_c                    34.2800
_cell_angle_alpha                 90.0000
_cell_angle_beta                  90.0000
_cell_angle_gamma                 90.0000

loop_
_atom_site_label
_atom_site_fract_x
_atom_site_fract_y
_atom_site_fract_z
_atom_site_occupancy
O1       0.75000    0.75000    0.75000   1.00
Zn1      0.71720    0.78280    0.78280   1.00
Zn1      0.78280    0.71720    0.78280   1.00
Zn1      0.78280    0.78280    0.71720   1.00
Zn1      0.71720    0.71720    0.71720   1.00
O2       0.72650    0.77350    0.83820   1.00
O2       0.72650    0.83820    0.77350   1.00
O2       0.66180    0.77350    0.77350   1.00
O2       0.77350    0.72650    0.83820   1.00
O2       0.83820    0.72650    0.77350   1.00
O2       0.77350    0.66180    0.77350   1.00
O2       0.77350    0.83820    0.72650   1.00
O2       0.83820    0.77350    0.72650   1.00
O2       0.77350    0.77350    0.66180   1.00
O2       0.66180    0.72650    0.72650   1.00
O2       0.72650    0.66180    0.72650   1.00
O2       0.72650    0.72650    0.66180   1.00
C1       0.75000    0.75000    0.85520   1.00
C1       0.75000    0.85520    0.75000   1.00
C1       0.64480    0.75000    0.75000   1.00
C1       0.85520    0.75000    0.75000   1.00
C1       0.75000    0.64480    0.75000   1.00
C1       0.75000    0.75000    0.64480   1.00
O1       0.25000    0.25000    0.75000   1.00
Zn1      0.21720    0.28280    0.78280   1.00
Zn1      0.28280    0.21720    0.78280   1.00
Zn1      0.28280    0.28280    0.71720   1.00
Zn1      0.21720    0.21720    0.71720   1.00
O2       0.22650    0.27350    0.83820   1.00
O2       0.22650    0.33820    0.77350   1.00
O2       0.16180    0.27350    0.77350   1.00
O2       0.27350    0.22650    0.83820   1.00
O2       0.33820    0.22650    0.77350   1.00
O2       0.27350    0.16180    0.77350   1.00
O2       0.27350    0.33820    0.72650   1.00
O2       0.33820    0.27350    0.72650   1.00
O2       0.27350    0.27350    0.66180   1.00
O2       0.16180    0.22650    0.72650   1.00
O2       0.22650    0.16180    0.72650   1.00
O2       0.22650    0.22650    0.66180   1.00
C1       0.25000    0.25000    0.85520   1.00
C1       0.25000    0.35520    0.75000   1.00
C1       0.14480    0.25000    0.75000   1.00
C1       0.35520    0.25000    0.75000   1.00
C1       0.25000    0.14480    0.75000   1.00
C1       0.25000    0.25000    0.64480   1.00
O1       0.25000    0.75000    0.25000   1.00
Zn1      0.21720    0.78280    0.28280   1.00
Zn1      0.28280    0.71720    0.28280   1.00
Zn1      0.28280    0.78280    0.21720   1.00
Zn1      0.21720    0.71720    0.21720   1.00
O2       0.22650    0.77350    0.33820   1.00
O2       0.22650    0.83820    0.27350   1.00
O2       0.16180    0.77350    0.27350   1.00
O2       0.27350    0.72650    0.33820   1.00
O2       0.33820    0.72650    0.27350   1.00
O2       0.27350    0.66180    0.27350   1.00
O2       0.27350    0.83820    0.22650   1.00
O2       0.33820    0.77350    0.22650   1.00
O2       0.27350    0.77350    0.16180   1.00
O2       0.16180    0.72650    0.22650   1.00
O2       0.22650    0.66180    0.22650   1.00
O2       0.22650    0.72650    0.16180   1.00
C1       0.25000    0.75000    0.35520   1.00
C1       0.25000    0.85520    0.25000   1.00
C1       0.14480    0.75000    0.25000   1.00
C1       0.35520    0.75000    0.25000   1.00
C1       0.25000    0.64480    0.25000   1.00
C1       0.25000    0.75000    0.14480   1.00
O1       0.75000    0.25000    0.25000   1.00
Zn1      0.71720    0.28280    0.28280   1.00
Zn1      0.78280    0.21720    0.28280   1.00
Zn1      0.78280    0.28280    0.21720   1.00
Zn1      0.71720    0.21720    0.21720   1.00
O2       0.72650    0.27350    0.33820   1.00
O2       0.72650    0.33820    0.27350   1.00
O2       0.66180    0.27350    0.27350   1.00
O2       0.77350    0.22650    0.33820   1.00
O2       0.83820    0.22650    0.27350   1.00
O2       0.77350    0.16180    0.27350   1.00
O2       0.77350    0.33820    0.22650   1.00
O2       0.83820    0.27350    0.22650   1.00
O2       0.77350    0.27350    0.16180   1.00
O2       0.66180    0.22650    0.22650   1.00
O2       0.72650    0.16180    0.22650   1.00
O2       0.72650    0.22650    0.16180   1.00
C1       0.75000    0.25000    0.35520   1.00
C1       0.75000    0.35520    0.25000   1.00
C1       0.64480    0.25000    0.25000   1.00
C1       0.85520    0.25000    0.25000   1.00
C1       0.75000    0.14480    0.25000   1.00
C1       0.75000    0.25000    0.14480   1.00
O1       0.25000    0.25000    0.25000   1.00
Zn1      0.28280    0.21720    0.21720   1.00
Zn1      0.21720    0.28280    0.21720   1.00
Zn1      0.21720    0.21720    0.28280   1.00
Zn1      0.28280    0.28280    0.28280   1.00
O2       0.27350    0.22650    0.16180   1.00
O2       0.27350    0.16180    0.22650   1.00
O2       0.33820    0.22650    0.22650   1.00
O2       0.22650    0.27350    0.16180   1.00
O2       0.16180    0.27350    0.22650   1.00
O2       0.22650    0.33820    0.22650   1.00
O2       0.22650    0.16180    0.27350   1.00
O2       0.16180    0.22650    0.27350   1.00
O2       0.22650    0.22650    0.33820   1.00
O2       0.33820    0.27350    0.27350   1.00
O2       0.27350    0.33820    0.27350   1.00
O2       0.27350    0.27350    0.33820   1.00
C1       0.25000    0.25000    0.14480   1.00
C1       0.25000    0.14480    0.25000   1.00
C1       0.35520    0.25000    0.25000   1.00
C1       0.14480    0.25000    0.25000   1.00
C1       0.25000    0.35520    0.25000   1.00
C1       0.25000    0.25000    0.35520   1.00
O1       0.75000    0.75000    0.25000   1.00
Zn1      0.78280    0.71720    0.21720   1.00
Zn1      0.71720    0.78280    0.21720   1.00
Zn1      0.71720    0.71720    0.28280   1.00
Zn1      0.78280    0.78280    0.28280   1.00
O2       0.77350    0.72650    0.16180   1.00
O2       0.77350    0.66180    0.22650   1.00
O2       0.83820    0.72650    0.22650   1.00
O2       0.72650    0.77350    0.16180   1.00
O2       0.66180    0.77350    0.22650   1.00
O2       0.72650    0.83820    0.22650   1.00
O2       0.72650    0.66180    0.27350   1.00
O2       0.66180    0.72650    0.27350   1.00
O2       0.72650    0.72650    0.33820   1.00
O2       0.83820    0.77350    0.27350   1.00
O2       0.77350    0.83820    0.27350   1.00
O2       0.77350    0.77350    0.33820   1.00
C1       0.75000    0.75000    0.14480   1.00
C1       0.75000    0.64480    0.25000   1.00
C1       0.85520    0.75000    0.25000   1.00
C1       0.64480    0.75000    0.25000   1.00
C1       0.75000    0.85520    0.25000   1.00
C1       0.75000    0.75000    0.35520   1.00
O1       0.75000    0.25000    0.75000   1.00
Zn1      0.78280    0.21720    0.71720   1.00
Zn1      0.71720    0.28280    0.71720   1.00
Zn1      0.71720    0.21720    0.78280   1.00
Zn1      0.78280    0.28280    0.78280   1.00
O2       0.77350    0.22650    0.66180   1.00
O2       0.77350    0.16180    0.72650   1.00
O2       0.83820    0.22650    0.72650   1.00
O2       0.72650    0.27350    0.66180   1.00
O2       0.66180    0.27350    0.72650   1.00
O2       0.72650    0.33820    0.72650   1.00
O2       0.72650    0.16180    0.77350   1.00
O2       0.66180    0.22650    0.77350   1.00
O2       0.72650    0.22650    0.83820   1.00
O2       0.83820    0.27350    0.77350   1.00
O2       0.77350    0.33820    0.77350   1.00
O2       0.77350    0.27350    0.83820   1.00
C1       0.75000    0.25000    0.64480   1.00
C1       0.75000    0.14480    0.75000   1.00
C1       0.85520    0.25000    0.75000   1.00
C1       0.64480    0.25000    0.75000   1.00
C1       0.75000    0.35520    0.75000   1.00
C1       0.75000    0.25000    0.85520   1.00
O1       0.25000    0.75000    0.75000   1.00
Zn1      0.28280    0.71720    0.71720   1.00
Zn1      0.21720    0.78280    0.71720   1.00
Zn1      0.21720    0.71720    0.78280   1.00
Zn1      0.28280    0.78280    0.78280   1.00
O2       0.27350    0.72650    0.66180   1.00
O2       0.27350    0.66180    0.72650   1.00
O2       0.33820    0.72650    0.72650   1.00
O2       0.22650    0.77350    0.66180   1.00
O2       0.16180    0.77350    0.72650   1.00
O2       0.22650    0.83820    0.72650   1.00
O2       0.22650    0.66180    0.77350   1.00
O2       0.16180    0.72650    0.77350   1.00
O2       0.22650    0.72650    0.83820   1.00
O2       0.33820    0.77350    0.77350   1.00
O2       0.27350    0.83820    0.77350   1.00
O2       0.27350    0.77350    0.83820   1.00
C1       0.25000    0.75000    0.64480   1.00
C1       0.25000    0.64480    0.75000   1.00
C1       0.35520    0.75000    0.75000   1.00
C1       0.14480    0.75000    0.75000   1.00
C1       0.25000    0.85520    0.75000   1.00
C1       0.25000    0.75000    0.85520   1.00
C4       0.75060    0.74950    0.97917   1.00
C4       0.74940    0.75050    1.02083   1.00
C3       0.76210    0.71565    0.95846   1.00
C3       0.73606    0.71847    1.04321   1.00
C3       0.73938    0.78216    0.95643   1.00
C3       0.76256    0.78352    1.04187   1.00
C2       0.75110    0.74715    0.89487   1.00
C2       0.74893    0.75253    1.10514   1.00
C3       0.76237    0.71459    0.91715   1.00
C3       0.73580    0.71957    1.08449   1.00
C3       0.73967    0.78093    0.91514   1.00
C3a      0.76235    0.78474    1.08328   1.00
H1       0.77132    0.68989    0.97425   1.00
H1       0.72529    0.69254    1.02875   1.00
H1       0.77144    0.68818    0.90240   1.00
H1       0.72519    0.69452    1.10056   1.00
H1       0.73069    0.80644    0.89882   1.00
C5       0.77699    0.82072    1.10380   1.00
H1       0.77339    0.80870    1.02622   1.00
H1       0.72954    0.80864    0.97059   1.00
H2       0.77437    0.81765    1.13599   1.00
H2       0.80850    0.82438    1.09705   1.00
N1       0.75503    0.85511    1.09125   1.00
C6       0.71655    0.86114    1.09644   1.00
C6       0.76957    0.88666    1.07288   1.00
C6       0.70629    0.89686    1.08102   1.00
C6       0.74001    0.91309    1.06604   1.00
H3       0.69694    0.84071    1.11049   1.00
H3       0.79989    0.89040    1.06484   1.00
H3       0.67745    0.90966    1.08076   1.00
H3       0.74274    0.94110    1.05180   1.00
C4       0.74950    0.97917    0.75060   1.00
C4       0.75050    1.02083    0.74940   1.00
C3       0.71565    0.95846    0.76210   1.00
C3       0.71847    1.04321    0.73606   1.00
C3       0.78216    0.95643    0.73938   1.00
C3       0.78352    1.04187    0.76256   1.00
C2       0.74715    0.89487    0.75110   1.00
C2       0.75253    1.10514    0.74893   1.00
C3       0.71459    0.91715    0.76237   1.00
C3       0.71957    1.08449    0.73580   1.00
C3       0.78093    0.91514    0.73967   1.00
C3a      0.78474    1.08328    0.76235   1.00
H1       0.68989    0.97425    0.77132   1.00
H1       0.69254    1.02875    0.72529   1.00
H1       0.68818    0.90240    0.77144   1.00
H1       0.69452    1.10056    0.72519   1.00
H1       0.80644    0.89882    0.73069   1.00
C5       0.82072    1.10380    0.77699   1.00
H1       0.80870    1.02622    0.77339   1.00
H1       0.80864    0.97059    0.72954   1.00
H2       0.81765    1.13599    0.77437   1.00
H2       0.82438    1.09705    0.80850   1.00
N1       0.85511    1.09125    0.75503   1.00
C6       0.86114    1.09644    0.71655   1.00
C6       0.88666    1.07288    0.76957   1.00
C6       0.89686    1.08102    0.70629   1.00
C6       0.91309    1.06604    0.74001   1.00
H3       0.84071    1.11049    0.69694   1.00
H3       0.89040    1.06484    0.79989   1.00
H3       0.90966    1.08076    0.67745   1.00
H3       0.94110    1.05180    0.74274   1.00
C4       0.52083    0.75060    0.75050   1.00
C4       0.47917    0.74940    0.74950   1.00
C3       0.54154    0.76210    0.78435   1.00
C3       0.45679    0.73606    0.78153   1.00
C3       0.54357    0.73938    0.71784   1.00
C3       0.45813    0.76256    0.71648   1.00
C2       0.60513    0.75110    0.75285   1.00
C2       0.39486    0.74893    0.74747   1.00
C3       0.58285    0.76237    0.78541   1.00
C3       0.41551    0.73580    0.78043   1.00
C3       0.58486    0.73967    0.71907   1.00
C3a      0.41672    0.76235    0.71526   1.00
H1       0.52575    0.77132    0.81011   1.00
H1       0.47125    0.72529    0.80746   1.00
H1       0.59760    0.77144    0.81182   1.00
H1       0.39944    0.72519    0.80548   1.00
H1       0.60118    0.73069    0.69356   1.00
C5       0.39620    0.77699    0.67928   1.00
H1       0.47378    0.77339    0.69130   1.00
H1       0.52941    0.72954    0.69136   1.00
H2       0.36401    0.77437    0.68235   1.00
H2       0.40295    0.80850    0.67562   1.00
N1       0.40875    0.75503    0.64489   1.00
C6       0.40356    0.71655    0.63886   1.00
C6       0.42712    0.76957    0.61334   1.00
C6       0.41898    0.70629    0.60314   1.00
C6       0.43396    0.74001    0.58691   1.00
H3       0.38951    0.69694    0.65929   1.00
H3       0.43516    0.79989    0.60960   1.00
H3       0.41924    0.67745    0.59034   1.00
H3       0.44820    0.74274    0.55890   1.00
C4       0.97917    0.75060    0.74950   1.00
C4       1.02083    0.74940    0.75050   1.00
C3       0.95846    0.76210    0.71565   1.00
C3       1.04321    0.73606    0.71847   1.00
C3       0.95643    0.73938    0.78216   1.00
C3       1.04187    0.76256    0.78352   1.00
C2       0.89487    0.75110    0.74715   1.00
C2       1.10514    0.74893    0.75253   1.00
C3       0.91715    0.76237    0.71459   1.00
C3       1.08449    0.73580    0.71957   1.00
C3       0.91514    0.73967    0.78093   1.00
C3a      1.08328    0.76235    0.78474   1.00
H1       0.97425    0.77132    0.68989   1.00
H1       1.02875    0.72529    0.69254   1.00
H1       0.90240    0.77144    0.68818   1.00
H1       1.10056    0.72519    0.69452   1.00
H1       0.89882    0.73069    0.80644   1.00
C5       1.10380    0.77699    0.82072   1.00
H1       1.02622    0.77339    0.80870   1.00
H1       0.97059    0.72954    0.80864   1.00
H2       1.13599    0.77437    0.81765   1.00
H2       1.09705    0.80850    0.82438   1.00
N1       1.09125    0.75503    0.85511   1.00
C6       1.09644    0.71655    0.86114   1.00
C6       1.07288    0.76957    0.88666   1.00
C6       1.08102    0.70629    0.89686   1.00
C6       1.06604    0.74001    0.91309   1.00
H3       1.11049    0.69694    0.84071   1.00
H3       1.06484    0.79989    0.89040   1.00
H3       1.08076    0.67745    0.90966   1.00
H3       1.05180    0.74274    0.94110   1.00
C4       0.75050    0.52083    0.75060   1.00
C4       0.74950    0.47917    0.74940   1.00
C3       0.78435    0.54154    0.76210   1.00
C3       0.78153    0.45679    0.73606   1.00
C3       0.71784    0.54357    0.73938   1.00
C3       0.71648    0.45813    0.76256   1.00
C2       0.75285    0.60513    0.75110   1.00
C2       0.74747    0.39486    0.74893   1.00
C3       0.78541    0.58285    0.76237   1.00
C3       0.78043    0.41551    0.73580   1.00
C3       0.71907    0.58486    0.73967   1.00
C3a      0.71526    0.41672    0.76235   1.00
H1       0.81011    0.52575    0.77132   1.00
H1       0.80746    0.47125    0.72529   1.00
H1       0.81182    0.59760    0.77144   1.00
H1       0.80548    0.39944    0.72519   1.00
H1       0.69356    0.60118    0.73069   1.00
C5       0.67928    0.39620    0.77699   1.00
H1       0.69130    0.47378    0.77339   1.00
H1       0.69136    0.52941    0.72954   1.00
H2       0.68235    0.36401    0.77437   1.00
H2       0.67562    0.40295    0.80850   1.00
N1       0.64489    0.40875    0.75503   1.00
C6       0.63886    0.40356    0.71655   1.00
C6       0.61334    0.42712    0.76957   1.00
C6       0.60314    0.41898    0.70629   1.00
C6       0.58691    0.43396    0.74001   1.00
H3       0.65929    0.38951    0.69694   1.00
H3       0.60960    0.43516    0.79989   1.00
H3       0.59034    0.41924    0.67745   1.00
H3       0.55890    0.44820    0.74274   1.00
C4       0.75060    0.75050    0.52083   1.00
C4       0.74940    0.74950    0.47917   1.00
C3       0.76210    0.78435    0.54154   1.00
C3       0.73606    0.78153    0.45679   1.00
C3       0.73938    0.71784    0.54357   1.00
C3       0.76256    0.71648    0.45813   1.00
C2       0.75110    0.75285    0.60513   1.00
C2       0.74893    0.74747    0.39486   1.00
C3       0.76237    0.78541    0.58285   1.00
C3       0.73580    0.78043    0.41551   1.00
C3       0.73967    0.71907    0.58486   1.00
C3a      0.76235    0.71526    0.41672   1.00
H1       0.77132    0.81011    0.52575   1.00
H1       0.72529    0.80746    0.47125   1.00
H1       0.77144    0.81182    0.59760   1.00
H1       0.72519    0.80548    0.39944   1.00
H1       0.73069    0.69356    0.60118   1.00
C5       0.77699    0.67928    0.39620   1.00
H1       0.77339    0.69130    0.47378   1.00
H1       0.72954    0.69136    0.52941   1.00
H2       0.77437    0.68235    0.36401   1.00
H2       0.80850    0.67562    0.40295   1.00
N1       0.75503    0.64489    0.40875   1.00
C6       0.71655    0.63886    0.40356   1.00
C6       0.76957    0.61334    0.42712   1.00
C6       0.70629    0.60314    0.41898   1.00
C6       0.74001    0.58691    0.43396   1.00
H3       0.69694    0.65929    0.38951   1.00
H3       0.79989    0.60960    0.43516   1.00
H3       0.67745    0.59034    0.41924   1.00
H3       0.74274    0.55890    0.44820   1.00
C4       0.25060    0.24950    0.97917   1.00
C4       0.24940    0.25050    1.02083   1.00
C3       0.26210    0.21565    0.95846   1.00
C3       0.23606    0.21847    1.04321   1.00
C3       0.23938    0.28216    0.95643   1.00
C3       0.26256    0.28352    1.04187   1.00
C2       0.25110    0.24715    0.89487   1.00
C2       0.24893    0.25253    1.10514   1.00
C3       0.26237    0.21459    0.91715   1.00
C3       0.23580    0.21957    1.08449   1.00
C3       0.23967    0.28093    0.91514   1.00
C3a      0.26235    0.28474    1.08328   1.00
H1       0.27132    0.18989    0.97425   1.00
H1       0.22529    0.19254    1.02875   1.00
H1       0.27144    0.18818    0.90240   1.00
H1       0.22519    0.19452    1.10056   1.00
H1       0.23069    0.30644    0.89882   1.00
C5       0.27699    0.32072    1.10380   1.00
H1       0.27339    0.30870    1.02622   1.00
H1       0.22954    0.30864    0.97059   1.00
H2       0.27437    0.31765    1.13599   1.00
H2       0.30850    0.32438    1.09705   1.00
N1       0.25503    0.35511    1.09125   1.00
C6       0.21655    0.36114    1.09644   1.00
C6       0.26957    0.38666    1.07288   1.00
C6       0.20629    0.39686    1.08102   1.00
C6       0.24001    0.41309    1.06604   1.00
H3       0.19694    0.34071    1.11049   1.00
H3       0.29989    0.39040    1.06484   1.00
H3       0.17745    0.40966    1.08076   1.00
H3       0.24274    0.44110    1.05180   1.00
C4       0.24950    0.47917    0.75060   1.00
C4       0.25050    0.52083    0.74940   1.00
C3       0.21565    0.45846    0.76210   1.00
C3       0.21847    0.54321    0.73606   1.00
C3       0.28216    0.45643    0.73938   1.00
C3       0.28352    0.54187    0.76256   1.00
C2       0.24715    0.39487    0.75110   1.00
C2       0.25253    0.60514    0.74893   1.00
C3       0.21459    0.41715    0.76237   1.00
C3       0.21957    0.58449    0.73580   1.00
C3       0.28093    0.41514    0.73967   1.00
C3a      0.28474    0.58328    0.76235   1.00
H1       0.18989    0.47425    0.77132   1.00
H1       0.19254    0.52875    0.72529   1.00
H1       0.18818    0.40240    0.77144   1.00
H1       0.19452    0.60056    0.72519   1.00
H1       0.30644    0.39882    0.73069   1.00
C5       0.32072    0.60380    0.77699   1.00
H1       0.30870    0.52622    0.77339   1.00
H1       0.30864    0.47059    0.72954   1.00
H2       0.31765    0.63599    0.77437   1.00
H2       0.32438    0.59705    0.80850   1.00
N1       0.35511    0.59125    0.75503   1.00
C6       0.36114    0.59644    0.71655   1.00
C6       0.38666    0.57288    0.76957   1.00
C6       0.39686    0.58102    0.70629   1.00
C6       0.41309    0.56604    0.74001   1.00
H3       0.34071    0.61049    0.69694   1.00
H3       0.39040    0.56484    0.79989   1.00
H3       0.40966    0.58076    0.67745   1.00
H3       0.44110    0.55180    0.74274   1.00
C4       0.02083    0.25060    0.75050   1.00
C4       -0.02083   0.24940    0.74950   1.00
C3       0.04154    0.26210    0.78435   1.00
C3       -0.04321   0.23606    0.78153   1.00
C3       0.04357    0.23938    0.71784   1.00
C3       -0.04187   0.26256    0.71648   1.00
C2       0.10513    0.25110    0.75285   1.00
C2       -0.10514   0.24893    0.74747   1.00
C3       0.08285    0.26237    0.78541   1.00
C3       -0.08449   0.23580    0.78043   1.00
C3       0.08486    0.23967    0.71907   1.00
C3a      -0.08328   0.26235    0.71526   1.00
H1       0.02575    0.27132    0.81011   1.00
H1       -0.02875   0.22529    0.80746   1.00
H1       0.09760    0.27144    0.81182   1.00
H1       -0.10056   0.22519    0.80548   1.00
H1       0.10118    0.23069    0.69356   1.00
C5       -0.10380   0.27699    0.67928   1.00
H1       -0.02622   0.27339    0.69130   1.00
H1       0.02941    0.22954    0.69136   1.00
H2       -0.13599   0.27437    0.68235   1.00
H2       -0.09705   0.30850    0.67562   1.00
N1       -0.09125   0.25503    0.64489   1.00
C6       -0.09644   0.21655    0.63886   1.00
C6       -0.07288   0.26957    0.61334   1.00
C6       -0.08102   0.20629    0.60314   1.00
C6       -0.06604   0.24001    0.58691   1.00
H3       -0.11049   0.19694    0.65929   1.00
H3       -0.06484   0.29989    0.60960   1.00
H3       -0.08076   0.17745    0.59034   1.00
H3       -0.05180   0.24274    0.55890   1.00
C4       0.47917    0.25060    0.74950   1.00
C4       0.52083    0.24940    0.75050   1.00
C3       0.45846    0.26210    0.71565   1.00
C3       0.54321    0.23606    0.71847   1.00
C3       0.45643    0.23938    0.78216   1.00
C3       0.54187    0.26256    0.78352   1.00
C2       0.39487    0.25110    0.74715   1.00
C2       0.60514    0.24893    0.75253   1.00
C3       0.41715    0.26237    0.71459   1.00
C3       0.58449    0.23580    0.71957   1.00
C3       0.41514    0.23967    0.78093   1.00
C3a      0.58328    0.26235    0.78474   1.00
H1       0.47425    0.27132    0.68989   1.00
H1       0.52875    0.22529    0.69254   1.00
H1       0.40240    0.27144    0.68818   1.00
H1       0.60056    0.22519    0.69452   1.00
H1       0.39882    0.23069    0.80644   1.00
C5       0.60380    0.27699    0.82072   1.00
H1       0.52622    0.27339    0.80870   1.00
H1       0.47059    0.22954    0.80864   1.00
H2       0.63599    0.27437    0.81765   1.00
H2       0.59705    0.30850    0.82438   1.00
N1       0.59125    0.25503    0.85511   1.00
C6       0.59644    0.21655    0.86114   1.00
C6       0.57288    0.26957    0.88666   1.00
C6       0.58102    0.20629    0.89686   1.00
C6       0.56604    0.24001    0.91309   1.00
H3       0.61049    0.19694    0.84071   1.00
H3       0.56484    0.29989    0.89040   1.00
H3       0.58076    0.17745    0.90966   1.00
H3       0.55180    0.24274    0.94110   1.00
C4       0.25050    0.02083    0.75060   1.00
C4       0.24950    -0.02083   0.74940   1.00
C3       0.28435    0.04154    0.76210   1.00
C3       0.28153    -0.04321   0.73606   1.00
C3       0.21784    0.04357    0.73938   1.00
C3       0.21648    -0.04187   0.76256   1.00
C2       0.25285    0.10513    0.75110   1.00
C2       0.24747    -0.10514   0.74893   1.00
C3       0.28541    0.08285    0.76237   1.00
C3       0.28043    -0.08449   0.73580   1.00
C3       0.21907    0.08486    0.73967   1.00
C3a      0.21526    -0.08328   0.76235   1.00
H1       0.31011    0.02575    0.77132   1.00
H1       0.30746    -0.02875   0.72529   1.00
H1       0.31182    0.09760    0.77144   1.00
H1       0.30548    -0.10056   0.72519   1.00
H1       0.19356    0.10118    0.73069   1.00
C5       0.17928    -0.10380   0.77699   1.00
H1       0.19130    -0.02622   0.77339   1.00
H1       0.19136    0.02941    0.72954   1.00
H2       0.18235    -0.13599   0.77437   1.00
H2       0.17562    -0.09705   0.80850   1.00
N1       0.14489    -0.09125   0.75503   1.00
C6       0.13886    -0.09644   0.71655   1.00
C6       0.11334    -0.07288   0.76957   1.00
C6       0.10314    -0.08102   0.70629   1.00
C6       0.08691    -0.06604   0.74001   1.00
H3       0.15929    -0.11049   0.69694   1.00
H3       0.10960    -0.06484   0.79989   1.00
H3       0.09034    -0.08076   0.67745   1.00
H3       0.05890    -0.05180   0.74274   1.00
C4       0.25060    0.25050    0.52083   1.00
C4       0.24940    0.24950    0.47917   1.00
C3       0.26210    0.28435    0.54154   1.00
C3       0.23606    0.28153    0.45679   1.00
C3       0.23938    0.21784    0.54357   1.00
C3       0.26256    0.21648    0.45813   1.00
C2       0.25110    0.25285    0.60513   1.00
C2       0.24893    0.24747    0.39486   1.00
C3       0.26237    0.28541    0.58285   1.00
C3       0.23580    0.28043    0.41551   1.00
C3       0.23967    0.21907    0.58486   1.00
C3a      0.26235    0.21526    0.41672   1.00
H1       0.27132    0.31011    0.52575   1.00
H1       0.22529    0.30746    0.47125   1.00
H1       0.27144    0.31182    0.59760   1.00
H1       0.22519    0.30548    0.39944   1.00
H1       0.23069    0.19356    0.60118   1.00
C5       0.27699    0.17928    0.39620   1.00
H1       0.27339    0.19130    0.47378   1.00
H1       0.22954    0.19136    0.52941   1.00
H2       0.27437    0.18235    0.36401   1.00
H2       0.30850    0.17562    0.40295   1.00
N1       0.25503    0.14489    0.40875   1.00
C6       0.21655    0.13886    0.40356   1.00
C6       0.26957    0.11334    0.42712   1.00
C6       0.20629    0.10314    0.41898   1.00
C6       0.24001    0.08691    0.43396   1.00
H3       0.19694    0.15929    0.38951   1.00
H3       0.29989    0.10960    0.43516   1.00
H3       0.17745    0.09034    0.41924   1.00
H3       0.24274    0.05890    0.44820   1.00
C4       0.25060    0.74950    0.47917   1.00
C4       0.24940    0.75050    0.52083   1.00
C3       0.26210    0.71565    0.45846   1.00
C3       0.23606    0.71847    0.54321   1.00
C3       0.23938    0.78216    0.45643   1.00
C3       0.26256    0.78352    0.54187   1.00
C2       0.25110    0.74715    0.39487   1.00
C2       0.24893    0.75253    0.60514   1.00
C3       0.26237    0.71459    0.41715   1.00
C3       0.23580    0.71957    0.58449   1.00
C3       0.23967    0.78093    0.41514   1.00
C3a      0.26235    0.78474    0.58328   1.00
H1       0.27132    0.68989    0.47425   1.00
H1       0.22529    0.69254    0.52875   1.00
H1       0.27144    0.68818    0.40240   1.00
H1       0.22519    0.69452    0.60056   1.00
H1       0.23069    0.80644    0.39882   1.00
C5       0.27699    0.82072    0.60380   1.00
H1       0.27339    0.80870    0.52622   1.00
H1       0.22954    0.80864    0.47059   1.00
H2       0.27437    0.81765    0.63599   1.00
H2       0.30850    0.82438    0.59705   1.00
N1       0.25503    0.85511    0.59125   1.00
C6       0.21655    0.86114    0.59644   1.00
C6       0.26957    0.88666    0.57288   1.00
C6       0.20629    0.89686    0.58102   1.00
C6       0.24001    0.91309    0.56604   1.00
H3       0.19694    0.84071    0.61049   1.00
H3       0.29989    0.89040    0.56484   1.00
H3       0.17745    0.90966    0.58076   1.00
H3       0.24274    0.94110    0.55180   1.00
C4       0.24950    0.97917    0.25060   1.00
C4       0.25050    1.02083    0.24940   1.00
C3       0.21565    0.95846    0.26210   1.00
C3       0.21847    1.04321    0.23606   1.00
C3       0.28216    0.95643    0.23938   1.00
C3       0.28352    1.04187    0.26256   1.00
C2       0.24715    0.89487    0.25110   1.00
C2       0.25253    1.10514    0.24893   1.00
C3       0.21459    0.91715    0.26237   1.00
C3       0.21957    1.08449    0.23580   1.00
C3       0.28093    0.91514    0.23967   1.00
C3a      0.28474    1.08328    0.26235   1.00
H1       0.18989    0.97425    0.27132   1.00
H1       0.19254    1.02875    0.22529   1.00
H1       0.18818    0.90240    0.27144   1.00
H1       0.19452    1.10056    0.22519   1.00
H1       0.30644    0.89882    0.23069   1.00
C5       0.32072    1.10380    0.27699   1.00
H1       0.30870    1.02622    0.27339   1.00
H1       0.30864    0.97059    0.22954   1.00
H2       0.31765    1.13599    0.27437   1.00
H2       0.32438    1.09705    0.30850   1.00
N1       0.35511    1.09125    0.25503   1.00
C6       0.36114    1.09644    0.21655   1.00
C6       0.38666    1.07288    0.26957   1.00
C6       0.39686    1.08102    0.20629   1.00
C6       0.41309    1.06604    0.24001   1.00
H3       0.34071    1.11049    0.19694   1.00
H3       0.39040    1.06484    0.29989   1.00
H3       0.40966    1.08076    0.17745   1.00
H3       0.44110    1.05180    0.24274   1.00
C4       0.02083    0.75060    0.25050   1.00
C4       -0.02083   0.74940    0.24950   1.00
C3       0.04154    0.76210    0.28435   1.00
C3       -0.04321   0.73606    0.28153   1.00
C3       0.04357    0.73938    0.21784   1.00
C3       -0.04187   0.76256    0.21648   1.00
C2       0.10513    0.75110    0.25285   1.00
C2       -0.10514   0.74893    0.24747   1.00
C3       0.08285    0.76237    0.28541   1.00
C3       -0.08449   0.73580    0.28043   1.00
C3       0.08486    0.73967    0.21907   1.00
C3a      -0.08328   0.76235    0.21526   1.00
H1       0.02575    0.77132    0.31011   1.00
H1       -0.02875   0.72529    0.30746   1.00
H1       0.09760    0.77144    0.31182   1.00
H1       -0.10056   0.72519    0.30548   1.00
H1       0.10118    0.73069    0.19356   1.00
C5       -0.10380   0.77699    0.17928   1.00
H1       -0.02622   0.77339    0.19130   1.00
H1       0.02941    0.72954    0.19136   1.00
H2       -0.13599   0.77437    0.18235   1.00
H2       -0.09705   0.80850    0.17562   1.00
N1       -0.09125   0.75503    0.14489   1.00
C6       -0.09644   0.71655    0.13886   1.00
C6       -0.07288   0.76957    0.11334   1.00
C6       -0.08102   0.70629    0.10314   1.00
C6       -0.06604   0.74001    0.08691   1.00
H3       -0.11049   0.69694    0.15929   1.00
H3       -0.06484   0.79989    0.10960   1.00
H3       -0.08076   0.67745    0.09034   1.00
H3       -0.05180   0.74274    0.05890   1.00
C4       0.47917    0.75060    0.24950   1.00
C4       0.52083    0.74940    0.25050   1.00
C3       0.45846    0.76210    0.21565   1.00
C3       0.54321    0.73606    0.21847   1.00
C3       0.45643    0.73938    0.28216   1.00
C3       0.54187    0.76256    0.28352   1.00
C2       0.39487    0.75110    0.24715   1.00
C2       0.60514    0.74893    0.25253   1.00
C3       0.41715    0.76237    0.21459   1.00
C3       0.58449    0.73580    0.21957   1.00
C3       0.41514    0.73967    0.28093   1.00
C3a      0.58328    0.76235    0.28474   1.00
H1       0.47425    0.77132    0.18989   1.00
H1       0.52875    0.72529    0.19254   1.00
H1       0.40240    0.77144    0.18818   1.00
H1       0.60056    0.72519    0.19452   1.00
H1       0.39882    0.73069    0.30644   1.00
C5       0.60380    0.77699    0.32072   1.00
H1       0.52622    0.77339    0.30870   1.00
H1       0.47059    0.72954    0.30864   1.00
H2       0.63599    0.77437    0.31765   1.00
H2       0.59705    0.80850    0.32438   1.00
N1       0.59125    0.75503    0.35511   1.00
C6       0.59644    0.71655    0.36114   1.00
C6       0.57288    0.76957    0.38666   1.00
C6       0.58102    0.70629    0.39686   1.00
C6       0.56604    0.74001    0.41309   1.00
H3       0.61049    0.69694    0.34071   1.00
H3       0.56484    0.79989    0.39040   1.00
H3       0.58076    0.67745    0.40966   1.00
H3       0.55180    0.74274    0.44110   1.00
C4       0.25050    0.52083    0.25060   1.00
C4       0.24950    0.47917    0.24940   1.00
C3       0.28435    0.54154    0.26210   1.00
C3       0.28153    0.45679    0.23606   1.00
C3       0.21784    0.54357    0.23938   1.00
C3       0.21648    0.45813    0.26256   1.00
C2       0.25285    0.60513    0.25110   1.00
C2       0.24747    0.39486    0.24893   1.00
C3       0.28541    0.58285    0.26237   1.00
C3       0.28043    0.41551    0.23580   1.00
C3       0.21907    0.58486    0.23967   1.00
C3a      0.21526    0.41672    0.26235   1.00
H1       0.31011    0.52575    0.27132   1.00
H1       0.30746    0.47125    0.22529   1.00
H1       0.31182    0.59760    0.27144   1.00
H1       0.30548    0.39944    0.22519   1.00
H1       0.19356    0.60118    0.23069   1.00
C5       0.17928    0.39620    0.27699   1.00
H1       0.19130    0.47378    0.27339   1.00
H1       0.19136    0.52941    0.22954   1.00
H2       0.18235    0.36401    0.27437   1.00
H2       0.17562    0.40295    0.30850   1.00
N1       0.14489    0.40875    0.25503   1.00
C6       0.13886    0.40356    0.21655   1.00
C6       0.11334    0.42712    0.26957   1.00
C6       0.10314    0.41898    0.20629   1.00
C6       0.08691    0.43396    0.24001   1.00
H3       0.15929    0.38951    0.19694   1.00
H3       0.10960    0.43516    0.29989   1.00
H3       0.09034    0.41924    0.17745   1.00
H3       0.05890    0.44820    0.24274   1.00
C4       0.25060    0.75050    0.02083   1.00
C4       0.24940    0.74950    -0.02083   1.00
C3       0.26210    0.78435    0.04154   1.00
C3       0.23606    0.78153    -0.04321   1.00
C3       0.23938    0.71784    0.04357   1.00
C3       0.26256    0.71648    -0.04187   1.00
C2       0.25110    0.75285    0.10513   1.00
C2       0.24893    0.74747    -0.10514   1.00
C3       0.26237    0.78541    0.08285   1.00
C3       0.23580    0.78043    -0.08449   1.00
C3       0.23967    0.71907    0.08486   1.00
C3a      0.26235    0.71526    -0.08328   1.00
H1       0.27132    0.81011    0.02575   1.00
H1       0.22529    0.80746    -0.02875   1.00
H1       0.27144    0.81182    0.09760   1.00
H1       0.22519    0.80548    -0.10056   1.00
H1       0.23069    0.69356    0.10118   1.00
C5       0.27699    0.67928    -0.10380   1.00
H1       0.27339    0.69130    -0.02622   1.00
H1       0.22954    0.69136    0.02941   1.00
H2       0.27437    0.68235    -0.13599   1.00
H2       0.30850    0.67562    -0.09705   1.00
N1       0.25503    0.64489    -0.09125   1.00
C6       0.21655    0.63886    -0.09644   1.00
C6       0.26957    0.61334    -0.07288   1.00
C6       0.20629    0.60314    -0.08102   1.00
C6       0.24001    0.58691    -0.06604   1.00
H3       0.19694    0.65929    -0.11049   1.00
H3       0.29989    0.60960    -0.06484   1.00
H3       0.17745    0.59034    -0.08076   1.00
H3       0.24274    0.55890    -0.05180   1.00
C4       0.75060    0.24950    0.47917   1.00
C4       0.74940    0.25050    0.52083   1.00
C3       0.76210    0.21565    0.45846   1.00
C3       0.73606    0.21847    0.54321   1.00
C3       0.73938    0.28216    0.45643   1.00
C3       0.76256    0.28352    0.54187   1.00
C2       0.75110    0.24715    0.39487   1.00
C2       0.74893    0.25253    0.60514   1.00
C3       0.76237    0.21459    0.41715   1.00
C3       0.73580    0.21957    0.58449   1.00
C3       0.73967    0.28093    0.41514   1.00
C3a      0.76235    0.28474    0.58328   1.00
H1       0.77132    0.18989    0.47425   1.00
H1       0.72529    0.19254    0.52875   1.00
H1       0.77144    0.18818    0.40240   1.00
H1       0.72519    0.19452    0.60056   1.00
H1       0.73069    0.30644    0.39882   1.00
C5       0.77699    0.32072    0.60380   1.00
H1       0.77339    0.30870    0.52622   1.00
H1       0.72954    0.30864    0.47059   1.00
H2       0.77437    0.31765    0.63599   1.00
H2       0.80850    0.32438    0.59705   1.00
N1       0.75503    0.35511    0.59125   1.00
C6       0.71655    0.36114    0.59644   1.00
C6       0.76957    0.38666    0.57288   1.00
C6       0.70629    0.39686    0.58102   1.00
C6       0.74001    0.41309    0.56604   1.00
H3       0.69694    0.34071    0.61049   1.00
H3       0.79989    0.39040    0.56484   1.00
H3       0.67745    0.40966    0.58076   1.00
H3       0.74274    0.44110    0.55180   1.00
C4       0.74950    0.47917    0.25060   1.00
C4       0.75050    0.52083    0.24940   1.00
C3       0.71565    0.45846    0.26210   1.00
C3       0.71847    0.54321    0.23606   1.00
C3       0.78216    0.45643    0.23938   1.00
C3       0.78352    0.54187    0.26256   1.00
C2       0.74715    0.39487    0.25110   1.00
C2       0.75253    0.60514    0.24893   1.00
C3       0.71459    0.41715    0.26237   1.00
C3       0.71957    0.58449    0.23580   1.00
C3       0.78093    0.41514    0.23967   1.00
C3a      0.78474    0.58328    0.26235   1.00
H1       0.68989    0.47425    0.27132   1.00
H1       0.69254    0.52875    0.22529   1.00
H1       0.68818    0.40240    0.27144   1.00
H1       0.69452    0.60056    0.22519   1.00
H1       0.80644    0.39882    0.23069   1.00
C5       0.82072    0.60380    0.27699   1.00
H1       0.80870    0.52622    0.27339   1.00
H1       0.80864    0.47059    0.22954   1.00
H2       0.81765    0.63599    0.27437   1.00
H2       0.82438    0.59705    0.30850   1.00
N1       0.85511    0.59125    0.25503   1.00
C6       0.86114    0.59644    0.21655   1.00
C6       0.88666    0.57288    0.26957   1.00
C6       0.89686    0.58102    0.20629   1.00
C6       0.91309    0.56604    0.24001   1.00
H3       0.84071    0.61049    0.19694   1.00
H3       0.89040    0.56484    0.29989   1.00
H3       0.90966    0.58076    0.17745   1.00
H3       0.94110    0.55180    0.24274   1.00
C4       0.52083    0.25060    0.25050   1.00
C4       0.47917    0.24940    0.24950   1.00
C3       0.54154    0.26210    0.28435   1.00
C3       0.45679    0.23606    0.28153   1.00
C3       0.54357    0.23938    0.21784   1.00
C3       0.45813    0.26256    0.21648   1.00
C2       0.60513    0.25110    0.25285   1.00
C2       0.39486    0.24893    0.24747   1.00
C3       0.58285    0.26237    0.28541   1.00
C3       0.41551    0.23580    0.28043   1.00
C3       0.58486    0.23967    0.21907   1.00
C3a      0.41672    0.26235    0.21526   1.00
H1       0.52575    0.27132    0.31011   1.00
H1       0.47125    0.22529    0.30746   1.00
H1       0.59760    0.27144    0.31182   1.00
H1       0.39944    0.22519    0.30548   1.00
H1       0.60118    0.23069    0.19356   1.00
C5       0.39620    0.27699    0.17928   1.00
H1       0.47378    0.27339    0.19130   1.00
H1       0.52941    0.22954    0.19136   1.00
H2       0.36401    0.27437    0.18235   1.00
H2       0.40295    0.30850    0.17562   1.00
N1       0.40875    0.25503    0.14489   1.00
C6       0.40356    0.21655    0.13886   1.00
C6       0.42712    0.26957    0.11334   1.00
C6       0.41898    0.20629    0.10314   1.00
C6       0.43396    0.24001    0.08691   1.00
H3       0.38951    0.19694    0.15929   1.00
H3       0.43516    0.29989    0.10960   1.00
H3       0.41924    0.17745    0.09034   1.00
H3       0.44820    0.24274    0.05890   1.00
C4       0.97917    0.25060    0.24950   1.00
C4       1.02083    0.24940    0.25050   1.00
C3       0.95846    0.26210    0.21565   1.00
C3       1.04321    0.23606    0.21847   1.00
C3       0.95643    0.23938    0.28216   1.00
C3       1.04187    0.26256    0.28352   1.00
C2       0.89487    0.25110    0.24715   1.00
C2       1.10514    0.24893    0.25253   1.00
C3       0.91715    0.26237    0.21459   1.00
C3       1.08449    0.23580    0.21957   1.00
C3       0.91514    0.23967    0.28093   1.00
C3a      1.08328    0.26235    0.28474   1.00
H1       0.97425    0.27132    0.18989   1.00
H1       1.02875    0.22529    0.19254   1.00
H1       0.90240    0.27144    0.18818   1.00
H1       1.10056    0.22519    0.19452   1.00
H1       0.89882    0.23069    0.30644   1.00
C5       1.10380    0.27699    0.32072   1.00
H1       1.02622    0.27339    0.30870   1.00
H1       0.97059    0.22954    0.30864   1.00
H2       1.13599    0.27437    0.31765   1.00
H2       1.09705    0.30850    0.32438   1.00
N1       1.09125    0.25503    0.35511   1.00
C6       1.09644    0.21655    0.36114   1.00
C6       1.07288    0.26957    0.38666   1.00
C6       1.08102    0.20629    0.39686   1.00
C6       1.06604    0.24001    0.41309   1.00
H3       1.11049    0.19694    0.34071   1.00
H3       1.06484    0.29989    0.39040   1.00
H3       1.08076    0.17745    0.40966   1.00
H3       1.05180    0.24274    0.44110   1.00
C4       0.75050    0.02083    0.25060   1.00
C4       0.74950    -0.02083   0.24940   1.00
C3       0.78435    0.04154    0.26210   1.00
C3       0.78153    -0.04321   0.23606   1.00
C3       0.71784    0.04357    0.23938   1.00
C3       0.71648    -0.04187   0.26256   1.00
C2       0.75285    0.10513    0.25110   1.00
C2       0.74747    -0.10514   0.24893   1.00
C3       0.78541    0.08285    0.26237   1.00
C3       0.78043    -0.08449   0.23580   1.00
C3       0.71907    0.08486    0.23967   1.00
C3a      0.71526    -0.08328   0.26235   1.00
H1       0.81011    0.02575    0.27132   1.00
H1       0.80746    -0.02875   0.22529   1.00
H1       0.81182    0.09760    0.27144   1.00
H1       0.80548    -0.10056   0.22519   1.00
H1       0.69356    0.10118    0.23069   1.00
C5       0.67928    -0.10380   0.27699   1.00
H1       0.69130    -0.02622   0.27339   1.00
H1       0.69136    0.02941    0.22954   1.00
H2       0.68235    -0.13599   0.27437   1.00
H2       0.67562    -0.09705   0.30850   1.00
N1       0.64489    -0.09125   0.25503   1.00
C6       0.63886    -0.09644   0.21655   1.00
C6       0.61334    -0.07288   0.26957   1.00
C6       0.60314    -0.08102   0.20629   1.00
C6       0.58691    -0.06604   0.24001   1.00
H3       0.65929    -0.11049   0.19694   1.00
H3       0.60960    -0.06484   0.29989   1.00
H3       0.59034    -0.08076   0.17745   1.00
H3       0.55890    -0.05180   0.24274   1.00
C4       0.75060    0.25050    0.02083   1.00
C4       0.74940    0.24950    -0.02083   1.00
C3       0.76210    0.28435    0.04154   1.00
C3       0.73606    0.28153    -0.04321   1.00
C3       0.73938    0.21784    0.04357   1.00
C3       0.76256    0.21648    -0.04187   1.00
C2       0.75110    0.25285    0.10513   1.00
C2       0.74893    0.24747    -0.10514   1.00
C3       0.76237    0.28541    0.08285   1.00
C3       0.73580    0.28043    -0.08449   1.00
C3       0.73967    0.21907    0.08486   1.00
C3a      0.76235    0.21526    -0.08328   1.00
H1       0.77132    0.31011    0.02575   1.00
H1       0.72529    0.30746    -0.02875   1.00
H1       0.77144    0.31182    0.09760   1.00
H1       0.72519    0.30548    -0.10056   1.00
H1       0.73069    0.19356    0.10118   1.00
C5       0.77699    0.17928    -0.10380   1.00
H1       0.77339    0.19130    -0.02622   1.00
H1       0.72954    0.19136    0.02941   1.00
H2       0.77437    0.18235    -0.13599   1.00
H2       0.80850    0.17562    -0.09705   1.00
N1       0.75503    0.14489    -0.09125   1.00
C6       0.71655    0.13886    -0.09644   1.00
C6       0.76957    0.11334    -0.07288   1.00
C6       0.70629    0.10314    -0.08102   1.00
C6       0.74001    0.08691    -0.06604   1.00
H3       0.69694    0.15929    -0.11049   1.00
H3       0.79989    0.10960    -0.06484   1.00
H3       0.67745    0.09034    -0.08076   1.00
H3       0.74274    0.05890    -0.05180   1.00
