data_IRMOF10_SG202_Ligand3_label_y.

_audit_creation_method             'generated by an auxiliary program of Tobunporous'

_symmetry_space_group_name_H-M     'P 1'
_symmetry_Int_Tables_number        1
_symmetry_cell_setting             triclinic

_cell_length_a                    34.2800
_cell_length_b                    34.2800
_cell_length_c                    34.2800
_cell_angle_alpha                 90.0000
_cell_angle_beta                  90.0000
_cell_angle_gamma                 90.0000

loop_
_atom_site_label
_atom_site_fract_x
_atom_site_fract_y
_atom_site_fract_z
_atom_site_occupancy
O1       0.75000    0.75000    0.75000   1.00
Zn1      0.71720    0.78280    0.78280   1.00
Zn1      0.78280    0.71720    0.78280   1.00
Zn1      0.78280    0.78280    0.71720   1.00
Zn1      0.71720    0.71720    0.71720   1.00
O2       0.72650    0.77350    0.83820   1.00
O2       0.72650    0.83820    0.77350   1.00
O2       0.66180    0.77350    0.77350   1.00
O2       0.77350    0.72650    0.83820   1.00
O2       0.83820    0.72650    0.77350   1.00
O2       0.77350    0.66180    0.77350   1.00
O2       0.77350    0.83820    0.72650   1.00
O2       0.83820    0.77350    0.72650   1.00
O2       0.77350    0.77350    0.66180   1.00
O2       0.66180    0.72650    0.72650   1.00
O2       0.72650    0.66180    0.72650   1.00
O2       0.72650    0.72650    0.66180   1.00
C1       0.75000    0.75000    0.85520   1.00
C1       0.75000    0.85520    0.75000   1.00
C1       0.64480    0.75000    0.75000   1.00
C1       0.85520    0.75000    0.75000   1.00
C1       0.75000    0.64480    0.75000   1.00
C1       0.75000    0.75000    0.64480   1.00
O1       0.25000    0.25000    0.75000   1.00
Zn1      0.21720    0.28280    0.78280   1.00
Zn1      0.28280    0.21720    0.78280   1.00
Zn1      0.28280    0.28280    0.71720   1.00
Zn1      0.21720    0.21720    0.71720   1.00
O2       0.22650    0.27350    0.83820   1.00
O2       0.22650    0.33820    0.77350   1.00
O2       0.16180    0.27350    0.77350   1.00
O2       0.27350    0.22650    0.83820   1.00
O2       0.33820    0.22650    0.77350   1.00
O2       0.27350    0.16180    0.77350   1.00
O2       0.27350    0.33820    0.72650   1.00
O2       0.33820    0.27350    0.72650   1.00
O2       0.27350    0.27350    0.66180   1.00
O2       0.16180    0.22650    0.72650   1.00
O2       0.22650    0.16180    0.72650   1.00
O2       0.22650    0.22650    0.66180   1.00
C1       0.25000    0.25000    0.85520   1.00
C1       0.25000    0.35520    0.75000   1.00
C1       0.14480    0.25000    0.75000   1.00
C1       0.35520    0.25000    0.75000   1.00
C1       0.25000    0.14480    0.75000   1.00
C1       0.25000    0.25000    0.64480   1.00
O1       0.25000    0.75000    0.25000   1.00
Zn1      0.21720    0.78280    0.28280   1.00
Zn1      0.28280    0.71720    0.28280   1.00
Zn1      0.28280    0.78280    0.21720   1.00
Zn1      0.21720    0.71720    0.21720   1.00
O2       0.22650    0.77350    0.33820   1.00
O2       0.22650    0.83820    0.27350   1.00
O2       0.16180    0.77350    0.27350   1.00
O2       0.27350    0.72650    0.33820   1.00
O2       0.33820    0.72650    0.27350   1.00
O2       0.27350    0.66180    0.27350   1.00
O2       0.27350    0.83820    0.22650   1.00
O2       0.33820    0.77350    0.22650   1.00
O2       0.27350    0.77350    0.16180   1.00
O2       0.16180    0.72650    0.22650   1.00
O2       0.22650    0.66180    0.22650   1.00
O2       0.22650    0.72650    0.16180   1.00
C1       0.25000    0.75000    0.35520   1.00
C1       0.25000    0.85520    0.25000   1.00
C1       0.14480    0.75000    0.25000   1.00
C1       0.35520    0.75000    0.25000   1.00
C1       0.25000    0.64480    0.25000   1.00
C1       0.25000    0.75000    0.14480   1.00
O1       0.75000    0.25000    0.25000   1.00
Zn1      0.71720    0.28280    0.28280   1.00
Zn1      0.78280    0.21720    0.28280   1.00
Zn1      0.78280    0.28280    0.21720   1.00
Zn1      0.71720    0.21720    0.21720   1.00
O2       0.72650    0.27350    0.33820   1.00
O2       0.72650    0.33820    0.27350   1.00
O2       0.66180    0.27350    0.27350   1.00
O2       0.77350    0.22650    0.33820   1.00
O2       0.83820    0.22650    0.27350   1.00
O2       0.77350    0.16180    0.27350   1.00
O2       0.77350    0.33820    0.22650   1.00
O2       0.83820    0.27350    0.22650   1.00
O2       0.77350    0.27350    0.16180   1.00
O2       0.66180    0.22650    0.22650   1.00
O2       0.72650    0.16180    0.22650   1.00
O2       0.72650    0.22650    0.16180   1.00
C1       0.75000    0.25000    0.35520   1.00
C1       0.75000    0.35520    0.25000   1.00
C1       0.64480    0.25000    0.25000   1.00
C1       0.85520    0.25000    0.25000   1.00
C1       0.75000    0.14480    0.25000   1.00
C1       0.75000    0.25000    0.14480   1.00
O1       0.25000    0.25000    0.25000   1.00
Zn1      0.28280    0.21720    0.21720   1.00
Zn1      0.21720    0.28280    0.21720   1.00
Zn1      0.21720    0.21720    0.28280   1.00
Zn1      0.28280    0.28280    0.28280   1.00
O2       0.27350    0.22650    0.16180   1.00
O2       0.27350    0.16180    0.22650   1.00
O2       0.33820    0.22650    0.22650   1.00
O2       0.22650    0.27350    0.16180   1.00
O2       0.16180    0.27350    0.22650   1.00
O2       0.22650    0.33820    0.22650   1.00
O2       0.22650    0.16180    0.27350   1.00
O2       0.16180    0.22650    0.27350   1.00
O2       0.22650    0.22650    0.33820   1.00
O2       0.33820    0.27350    0.27350   1.00
O2       0.27350    0.33820    0.27350   1.00
O2       0.27350    0.27350    0.33820   1.00
C1       0.25000    0.25000    0.14480   1.00
C1       0.25000    0.14480    0.25000   1.00
C1       0.35520    0.25000    0.25000   1.00
C1       0.14480    0.25000    0.25000   1.00
C1       0.25000    0.35520    0.25000   1.00
C1       0.25000    0.25000    0.35520   1.00
O1       0.75000    0.75000    0.25000   1.00
Zn1      0.78280    0.71720    0.21720   1.00
Zn1      0.71720    0.78280    0.21720   1.00
Zn1      0.71720    0.71720    0.28280   1.00
Zn1      0.78280    0.78280    0.28280   1.00
O2       0.77350    0.72650    0.16180   1.00
O2       0.77350    0.66180    0.22650   1.00
O2       0.83820    0.72650    0.22650   1.00
O2       0.72650    0.77350    0.16180   1.00
O2       0.66180    0.77350    0.22650   1.00
O2       0.72650    0.83820    0.22650   1.00
O2       0.72650    0.66180    0.27350   1.00
O2       0.66180    0.72650    0.27350   1.00
O2       0.72650    0.72650    0.33820   1.00
O2       0.83820    0.77350    0.27350   1.00
O2       0.77350    0.83820    0.27350   1.00
O2       0.77350    0.77350    0.33820   1.00
C1       0.75000    0.75000    0.14480   1.00
C1       0.75000    0.64480    0.25000   1.00
C1       0.85520    0.75000    0.25000   1.00
C1       0.64480    0.75000    0.25000   1.00
C1       0.75000    0.85520    0.25000   1.00
C1       0.75000    0.75000    0.35520   1.00
O1       0.75000    0.25000    0.75000   1.00
Zn1      0.78280    0.21720    0.71720   1.00
Zn1      0.71720    0.28280    0.71720   1.00
Zn1      0.71720    0.21720    0.78280   1.00
Zn1      0.78280    0.28280    0.78280   1.00
O2       0.77350    0.22650    0.66180   1.00
O2       0.77350    0.16180    0.72650   1.00
O2       0.83820    0.22650    0.72650   1.00
O2       0.72650    0.27350    0.66180   1.00
O2       0.66180    0.27350    0.72650   1.00
O2       0.72650    0.33820    0.72650   1.00
O2       0.72650    0.16180    0.77350   1.00
O2       0.66180    0.22650    0.77350   1.00
O2       0.72650    0.22650    0.83820   1.00
O2       0.83820    0.27350    0.77350   1.00
O2       0.77350    0.33820    0.77350   1.00
O2       0.77350    0.27350    0.83820   1.00
C1       0.75000    0.25000    0.64480   1.00
C1       0.75000    0.14480    0.75000   1.00
C1       0.85520    0.25000    0.75000   1.00
C1       0.64480    0.25000    0.75000   1.00
C1       0.75000    0.35520    0.75000   1.00
C1       0.75000    0.25000    0.85520   1.00
O1       0.25000    0.75000    0.75000   1.00
Zn1      0.28280    0.71720    0.71720   1.00
Zn1      0.21720    0.78280    0.71720   1.00
Zn1      0.21720    0.71720    0.78280   1.00
Zn1      0.28280    0.78280    0.78280   1.00
O2       0.27350    0.72650    0.66180   1.00
O2       0.27350    0.66180    0.72650   1.00
O2       0.33820    0.72650    0.72650   1.00
O2       0.22650    0.77350    0.66180   1.00
O2       0.16180    0.77350    0.72650   1.00
O2       0.22650    0.83820    0.72650   1.00
O2       0.22650    0.66180    0.77350   1.00
O2       0.16180    0.72650    0.77350   1.00
O2       0.22650    0.72650    0.83820   1.00
O2       0.33820    0.77350    0.77350   1.00
O2       0.27350    0.83820    0.77350   1.00
O2       0.27350    0.77350    0.83820   1.00
C1       0.25000    0.75000    0.64480   1.00
C1       0.25000    0.64480    0.75000   1.00
C1       0.35520    0.75000    0.75000   1.00
C1       0.14480    0.75000    0.75000   1.00
C1       0.25000    0.85520    0.75000   1.00
C1       0.25000    0.75000    0.85520   1.00
C4       0.74960    0.75302    1.02084   1.00
C4       0.75019    0.75259    0.97912   1.00
C3       0.76411    0.78442    1.04364   1.00
C3       0.76850    0.78182    0.95616   1.00
C3       0.73425    0.72009    1.04123   1.00
C3       0.73143    0.72140    0.95886   1.00
C2       0.74913    0.75083    1.10512   1.00
C2       0.75087    0.74917    0.89488   1.00
C3       0.76410    0.78329    1.08462   1.00
C3       0.76853    0.78038    0.91519   1.00
C3       0.73383    0.71983    1.08258   1.00
C3       0.73324    0.71961    0.91762   1.00
H1       0.77499    0.80910    1.03115   1.00
H1       0.78257    0.80490    0.96852   1.00
C5       0.71926    0.68773    1.02020   1.00
C5       0.71128    0.69197    0.97980   1.00
H1       0.77524    0.80675    1.09955   1.00
H1       0.78194    0.80251    0.90010   1.00
H1       0.72174    0.69649    1.09680   1.00
H1       0.72184    0.69582    0.90368   1.00
O3       0.71058    0.65360    1.03961   1.00
O3       0.68665    0.66615    0.96099   1.00
Si1      0.74322    0.61900    1.04247   1.00
Si1      0.64159    0.67918    0.95279   1.00
C6       0.71759    0.58877    1.07538   1.00
C6       0.74669    0.59724    0.99598   1.00
C6       0.78796    0.63480    1.06253   1.00
C6       0.62691    0.72658    0.96693   1.00
C6       0.63717    0.67440    0.90198   1.00
C6       0.61132    0.64393    0.97477   1.00
C6       0.69972    0.60968    1.11194   1.00
H2       0.69259    0.57950    1.05791   1.00
C6       0.73631    0.55017    1.09147   1.00
H2       0.71807    0.60361    0.98358   1.00
C6       0.77706    0.61408    0.96634   1.00
C6       0.75137    0.55188    0.99336   1.00
H2       0.77842    0.65098    1.08831   1.00
C6       0.81665    0.60259    1.07772   1.00
C6       0.81476    0.66323    1.03849   1.00
C6       0.63192    0.73844    1.01071   1.00
C6       0.64033    0.76264    0.94225   1.00
H2       0.59544    0.72559    0.96212   1.00
H2       0.65506    0.69811    0.89051   1.00
C6       0.65450    0.63623    0.88378   1.00
C6       0.59559    0.67972    0.88393   1.00
H2       0.61081    0.61999    0.95375   1.00
C6       0.62668    0.62537    1.01336   1.00
C6       0.56761    0.65487    0.98244   1.00
H2       0.68067    0.63379    1.10346   1.00
H2       0.72256    0.62135    1.13090   1.00
H2       0.68190    0.58960    1.12917   1.00
H2       0.71368    0.52815    1.09608   1.00
H2       0.75783    0.53771    1.07178   1.00
H2       0.75058    0.55449    1.11964   1.00
H2       0.77071    0.60402    0.93672   1.00
H2       0.77643    0.64580    0.96532   1.00
H2       0.80663    0.60466    0.97352   1.00
H2       0.72780    0.53685    1.00862   1.00
H2       0.75016    0.54182    0.96308   1.00
H2       0.77930    0.54247    1.00550   1.00
H2       0.82258    0.58089    1.05514   1.00
H2       0.84461    0.61485    1.08708   1.00
H2       0.80504    0.58794    1.10332   1.00
H2       0.83447    0.64752    1.01902   1.00
H2       0.79862    0.68375    1.02068   1.00
H2       0.83291    0.68049    1.05828   1.00
H2       0.66144    0.74848    1.01688   1.00
H2       0.61220    0.76242    1.01809   1.00
H2       0.62523    0.71451    1.03048   1.00
H2       0.62457    0.78891    0.95125   1.00
H2       0.67127    0.76880    0.94574   1.00
H2       0.63434    0.75886    0.91122   1.00
H2       0.65640    0.63890    0.85202   1.00
H2       0.68407    0.63068    0.89435   1.00
H2       0.63665    0.61070    0.89035   1.00
H2       0.58162    0.70644    0.89416   1.00
H2       0.59745    0.68179    0.85212   1.00
H2       0.57665    0.65504    0.89085   1.00
H2       0.62994    0.64689    1.03656   1.00
H2       0.60737    0.60226    1.02381   1.00
H2       0.65503    0.61216    1.00834   1.00
H2       0.55069    0.62901    0.99044   1.00
H2       0.56487    0.67593    1.00622   1.00
H2       0.55382    0.66720    0.95657   1.00
C4       0.75302    1.02084    0.74960   1.00
C4       0.75259    0.97912    0.75019   1.00
C3       0.78442    1.04364    0.76411   1.00
C3       0.78182    0.95616    0.76850   1.00
C3       0.72009    1.04123    0.73425   1.00
C3       0.72140    0.95886    0.73143   1.00
C2       0.75083    1.10512    0.74913   1.00
C2       0.74917    0.89488    0.75087   1.00
C3       0.78329    1.08462    0.76410   1.00
C3       0.78038    0.91519    0.76853   1.00
C3       0.71983    1.08258    0.73383   1.00
C3       0.71961    0.91762    0.73324   1.00
H1       0.80910    1.03115    0.77499   1.00
H1       0.80490    0.96852    0.78257   1.00
C5       0.68773    1.02020    0.71926   1.00
C5       0.69197    0.97980    0.71128   1.00
H1       0.80675    1.09955    0.77524   1.00
H1       0.80251    0.90010    0.78194   1.00
H1       0.69649    1.09680    0.72174   1.00
H1       0.69582    0.90368    0.72184   1.00
O3       0.65360    1.03961    0.71058   1.00
O3       0.66615    0.96099    0.68665   1.00
Si1      0.61900    1.04247    0.74322   1.00
Si1      0.67918    0.95279    0.64159   1.00
C6       0.58877    1.07538    0.71759   1.00
C6       0.59724    0.99598    0.74669   1.00
C6       0.63480    1.06253    0.78796   1.00
C6       0.72658    0.96693    0.62691   1.00
C6       0.67440    0.90198    0.63717   1.00
C6       0.64393    0.97477    0.61132   1.00
C6       0.60968    1.11194    0.69972   1.00
H2       0.57950    1.05791    0.69259   1.00
C6       0.55017    1.09147    0.73631   1.00
H2       0.60361    0.98358    0.71807   1.00
C6       0.61408    0.96634    0.77706   1.00
C6       0.55188    0.99336    0.75137   1.00
H2       0.65098    1.08831    0.77842   1.00
C6       0.60259    1.07772    0.81665   1.00
C6       0.66323    1.03849    0.81476   1.00
C6       0.73844    1.01071    0.63192   1.00
C6       0.76264    0.94225    0.64033   1.00
H2       0.72559    0.96212    0.59544   1.00
H2       0.69811    0.89051    0.65506   1.00
C6       0.63623    0.88378    0.65450   1.00
C6       0.67972    0.88393    0.59559   1.00
H2       0.61999    0.95375    0.61081   1.00
C6       0.62537    1.01336    0.62668   1.00
C6       0.65487    0.98244    0.56761   1.00
H2       0.63379    1.10346    0.68067   1.00
H2       0.62135    1.13090    0.72256   1.00
H2       0.58960    1.12917    0.68190   1.00
H2       0.52815    1.09608    0.71368   1.00
H2       0.53771    1.07178    0.75783   1.00
H2       0.55449    1.11964    0.75058   1.00
H2       0.60402    0.93672    0.77071   1.00
H2       0.64580    0.96532    0.77643   1.00
H2       0.60466    0.97352    0.80663   1.00
H2       0.53685    1.00862    0.72780   1.00
H2       0.54182    0.96308    0.75016   1.00
H2       0.54247    1.00550    0.77930   1.00
H2       0.58089    1.05514    0.82258   1.00
H2       0.61485    1.08708    0.84461   1.00
H2       0.58794    1.10332    0.80504   1.00
H2       0.64752    1.01902    0.83447   1.00
H2       0.68375    1.02068    0.79862   1.00
H2       0.68049    1.05828    0.83291   1.00
H2       0.74848    1.01688    0.66144   1.00
H2       0.76242    1.01809    0.61220   1.00
H2       0.71451    1.03048    0.62523   1.00
H2       0.78891    0.95125    0.62457   1.00
H2       0.76880    0.94574    0.67127   1.00
H2       0.75886    0.91122    0.63434   1.00
H2       0.63890    0.85202    0.65640   1.00
H2       0.63068    0.89435    0.68407   1.00
H2       0.61070    0.89035    0.63665   1.00
H2       0.70644    0.89416    0.58162   1.00
H2       0.68179    0.85212    0.59745   1.00
H2       0.65504    0.89085    0.57665   1.00
H2       0.64689    1.03656    0.62994   1.00
H2       0.60226    1.02381    0.60737   1.00
H2       0.61216    1.00834    0.65503   1.00
H2       0.62901    0.99044    0.55069   1.00
H2       0.67593    1.00622    0.56487   1.00
H2       0.66720    0.95657    0.55382   1.00
C4       0.47916    0.74960    0.74698   1.00
C4       0.52088    0.75019    0.74741   1.00
C3       0.45636    0.76411    0.71558   1.00
C3       0.54384    0.76850    0.71818   1.00
C3       0.45877    0.73425    0.77991   1.00
C3       0.54114    0.73143    0.77860   1.00
C2       0.39488    0.74913    0.74917   1.00
C2       0.60512    0.75087    0.75083   1.00
C3       0.41538    0.76410    0.71671   1.00
C3       0.58481    0.76853    0.71962   1.00
C3       0.41742    0.73383    0.78017   1.00
C3       0.58238    0.73324    0.78039   1.00
H1       0.46885    0.77499    0.69090   1.00
H1       0.53148    0.78257    0.69510   1.00
C5       0.47980    0.71926    0.81227   1.00
C5       0.52020    0.71128    0.80803   1.00
H1       0.40045    0.77524    0.69325   1.00
H1       0.59990    0.78194    0.69749   1.00
H1       0.40320    0.72174    0.80351   1.00
H1       0.59632    0.72184    0.80418   1.00
O3       0.46039    0.71058    0.84640   1.00
O3       0.53901    0.68665    0.83385   1.00
Si1      0.45753    0.74322    0.88100   1.00
Si1      0.54721    0.64159    0.82082   1.00
C6       0.42462    0.71759    0.91123   1.00
C6       0.50402    0.74669    0.90276   1.00
C6       0.43747    0.78796    0.86520   1.00
C6       0.53307    0.62691    0.77342   1.00
C6       0.59802    0.63717    0.82560   1.00
C6       0.52523    0.61132    0.85607   1.00
C6       0.38806    0.69972    0.89032   1.00
H2       0.44209    0.69259    0.92050   1.00
C6       0.40853    0.73631    0.94983   1.00
H2       0.51642    0.71807    0.89639   1.00
C6       0.53366    0.77706    0.88592   1.00
C6       0.50664    0.75137    0.94812   1.00
H2       0.41169    0.77842    0.84902   1.00
C6       0.42228    0.81665    0.89741   1.00
C6       0.46151    0.81476    0.83677   1.00
C6       0.48929    0.63192    0.76156   1.00
C6       0.55775    0.64033    0.73736   1.00
H2       0.53788    0.59544    0.77441   1.00
H2       0.60949    0.65506    0.80189   1.00
C6       0.61622    0.65450    0.86377   1.00
C6       0.61607    0.59559    0.82028   1.00
H2       0.54625    0.61081    0.88001   1.00
C6       0.48664    0.62668    0.87463   1.00
C6       0.51756    0.56761    0.84513   1.00
H2       0.39654    0.68067    0.86621   1.00
H2       0.36910    0.72256    0.87865   1.00
H2       0.37083    0.68190    0.91040   1.00
H2       0.40392    0.71368    0.97185   1.00
H2       0.42822    0.75783    0.96229   1.00
H2       0.38036    0.75058    0.94551   1.00
H2       0.56328    0.77071    0.89598   1.00
H2       0.53468    0.77643    0.85420   1.00
H2       0.52648    0.80663    0.89534   1.00
H2       0.49138    0.72780    0.96315   1.00
H2       0.53692    0.75016    0.95818   1.00
H2       0.49450    0.77930    0.95753   1.00
H2       0.44486    0.82258    0.91911   1.00
H2       0.41292    0.84461    0.88515   1.00
H2       0.39668    0.80504    0.91206   1.00
H2       0.48098    0.83447    0.85248   1.00
H2       0.47932    0.79862    0.81625   1.00
H2       0.44172    0.83291    0.81951   1.00
H2       0.48312    0.66144    0.75152   1.00
H2       0.48191    0.61220    0.73758   1.00
H2       0.46952    0.62523    0.78549   1.00
H2       0.54875    0.62457    0.71109   1.00
H2       0.55426    0.67127    0.73120   1.00
H2       0.58878    0.63434    0.74114   1.00
H2       0.64798    0.65640    0.86110   1.00
H2       0.60565    0.68407    0.86932   1.00
H2       0.60965    0.63665    0.88930   1.00
H2       0.60584    0.58162    0.79356   1.00
H2       0.64788    0.59745    0.81821   1.00
H2       0.60915    0.57665    0.84496   1.00
H2       0.46344    0.62994    0.85311   1.00
H2       0.47619    0.60737    0.89774   1.00
H2       0.49166    0.65503    0.88784   1.00
H2       0.50956    0.55069    0.87099   1.00
H2       0.49378    0.56487    0.82407   1.00
H2       0.54343    0.55382    0.83280   1.00
C4       1.02084    0.74960    0.75302   1.00
C4       0.97912    0.75019    0.75259   1.00
C3       1.04364    0.76411    0.78442   1.00
C3       0.95616    0.76850    0.78182   1.00
C3       1.04123    0.73425    0.72009   1.00
C3       0.95886    0.73143    0.72140   1.00
C2       1.10512    0.74913    0.75083   1.00
C2       0.89488    0.75087    0.74917   1.00
C3       1.08462    0.76410    0.78329   1.00
C3       0.91519    0.76853    0.78038   1.00
C3       1.08258    0.73383    0.71983   1.00
C3       0.91762    0.73324    0.71961   1.00
H1       1.03115    0.77499    0.80910   1.00
H1       0.96852    0.78257    0.80490   1.00
C5       1.02020    0.71926    0.68773   1.00
C5       0.97980    0.71128    0.69197   1.00
H1       1.09955    0.77524    0.80675   1.00
H1       0.90010    0.78194    0.80251   1.00
H1       1.09680    0.72174    0.69649   1.00
H1       0.90368    0.72184    0.69582   1.00
O3       1.03961    0.71058    0.65360   1.00
O3       0.96099    0.68665    0.66615   1.00
Si1      1.04247    0.74322    0.61900   1.00
Si1      0.95279    0.64159    0.67918   1.00
C6       1.07538    0.71759    0.58877   1.00
C6       0.99598    0.74669    0.59724   1.00
C6       1.06253    0.78796    0.63480   1.00
C6       0.96693    0.62691    0.72658   1.00
C6       0.90198    0.63717    0.67440   1.00
C6       0.97477    0.61132    0.64393   1.00
C6       1.11194    0.69972    0.60968   1.00
H2       1.05791    0.69259    0.57950   1.00
C6       1.09147    0.73631    0.55017   1.00
H2       0.98358    0.71807    0.60361   1.00
C6       0.96634    0.77706    0.61408   1.00
C6       0.99336    0.75137    0.55188   1.00
H2       1.08831    0.77842    0.65098   1.00
C6       1.07772    0.81665    0.60259   1.00
C6       1.03849    0.81476    0.66323   1.00
C6       1.01071    0.63192    0.73844   1.00
C6       0.94225    0.64033    0.76264   1.00
H2       0.96212    0.59544    0.72559   1.00
H2       0.89051    0.65506    0.69811   1.00
C6       0.88378    0.65450    0.63623   1.00
C6       0.88393    0.59559    0.67972   1.00
H2       0.95375    0.61081    0.61999   1.00
C6       1.01336    0.62668    0.62537   1.00
C6       0.98244    0.56761    0.65487   1.00
H2       1.10346    0.68067    0.63379   1.00
H2       1.13090    0.72256    0.62135   1.00
H2       1.12917    0.68190    0.58960   1.00
H2       1.09608    0.71368    0.52815   1.00
H2       1.07178    0.75783    0.53771   1.00
H2       1.11964    0.75058    0.55449   1.00
H2       0.93672    0.77071    0.60402   1.00
H2       0.96532    0.77643    0.64580   1.00
H2       0.97352    0.80663    0.60466   1.00
H2       1.00862    0.72780    0.53685   1.00
H2       0.96308    0.75016    0.54182   1.00
H2       1.00550    0.77930    0.54247   1.00
H2       1.05514    0.82258    0.58089   1.00
H2       1.08708    0.84461    0.61485   1.00
H2       1.10332    0.80504    0.58794   1.00
H2       1.01902    0.83447    0.64752   1.00
H2       1.02068    0.79862    0.68375   1.00
H2       1.05828    0.83291    0.68049   1.00
H2       1.01688    0.66144    0.74848   1.00
H2       1.01809    0.61220    0.76242   1.00
H2       1.03048    0.62523    0.71451   1.00
H2       0.95125    0.62457    0.78891   1.00
H2       0.94574    0.67127    0.76880   1.00
H2       0.91122    0.63434    0.75886   1.00
H2       0.85202    0.65640    0.63890   1.00
H2       0.89435    0.68407    0.63068   1.00
H2       0.89035    0.63665    0.61070   1.00
H2       0.89416    0.58162    0.70644   1.00
H2       0.85212    0.59745    0.68179   1.00
H2       0.89085    0.57665    0.65504   1.00
H2       1.03656    0.62994    0.64689   1.00
H2       1.02381    0.60737    0.60226   1.00
H2       1.00834    0.65503    0.61216   1.00
H2       0.99044    0.55069    0.62901   1.00
H2       1.00622    0.56487    0.67593   1.00
H2       0.95657    0.55382    0.66720   1.00
C4       0.74698    0.47916    0.74960   1.00
C4       0.74741    0.52088    0.75019   1.00
C3       0.71558    0.45636    0.76411   1.00
C3       0.71818    0.54384    0.76850   1.00
C3       0.77991    0.45877    0.73425   1.00
C3       0.77860    0.54114    0.73143   1.00
C2       0.74917    0.39488    0.74913   1.00
C2       0.75083    0.60512    0.75087   1.00
C3       0.71671    0.41538    0.76410   1.00
C3       0.71962    0.58481    0.76853   1.00
C3       0.78017    0.41742    0.73383   1.00
C3       0.78039    0.58238    0.73324   1.00
H1       0.69090    0.46885    0.77499   1.00
H1       0.69510    0.53148    0.78257   1.00
C5       0.81227    0.47980    0.71926   1.00
C5       0.80803    0.52020    0.71128   1.00
H1       0.69325    0.40045    0.77524   1.00
H1       0.69749    0.59990    0.78194   1.00
H1       0.80351    0.40320    0.72174   1.00
H1       0.80418    0.59632    0.72184   1.00
O3       0.84640    0.46039    0.71058   1.00
O3       0.83385    0.53901    0.68665   1.00
Si1      0.88100    0.45753    0.74322   1.00
Si1      0.82082    0.54721    0.64159   1.00
C6       0.91123    0.42462    0.71759   1.00
C6       0.90276    0.50402    0.74669   1.00
C6       0.86520    0.43747    0.78796   1.00
C6       0.77342    0.53307    0.62691   1.00
C6       0.82560    0.59802    0.63717   1.00
C6       0.85607    0.52523    0.61132   1.00
C6       0.89032    0.38806    0.69972   1.00
H2       0.92050    0.44209    0.69259   1.00
C6       0.94983    0.40853    0.73631   1.00
H2       0.89639    0.51642    0.71807   1.00
C6       0.88592    0.53366    0.77706   1.00
C6       0.94812    0.50664    0.75137   1.00
H2       0.84902    0.41169    0.77842   1.00
C6       0.89741    0.42228    0.81665   1.00
C6       0.83677    0.46151    0.81476   1.00
C6       0.76156    0.48929    0.63192   1.00
C6       0.73736    0.55775    0.64033   1.00
H2       0.77441    0.53788    0.59544   1.00
H2       0.80189    0.60949    0.65506   1.00
C6       0.86377    0.61622    0.65450   1.00
C6       0.82028    0.61607    0.59559   1.00
H2       0.88001    0.54625    0.61081   1.00
C6       0.87463    0.48664    0.62668   1.00
C6       0.84513    0.51756    0.56761   1.00
H2       0.86621    0.39654    0.68067   1.00
H2       0.87865    0.36910    0.72256   1.00
H2       0.91040    0.37083    0.68190   1.00
H2       0.97185    0.40392    0.71368   1.00
H2       0.96229    0.42822    0.75783   1.00
H2       0.94551    0.38036    0.75058   1.00
H2       0.89598    0.56328    0.77071   1.00
H2       0.85420    0.53468    0.77643   1.00
H2       0.89534    0.52648    0.80663   1.00
H2       0.96315    0.49138    0.72780   1.00
H2       0.95818    0.53692    0.75016   1.00
H2       0.95753    0.49450    0.77930   1.00
H2       0.91911    0.44486    0.82258   1.00
H2       0.88515    0.41292    0.84461   1.00
H2       0.91206    0.39668    0.80504   1.00
H2       0.85248    0.48098    0.83447   1.00
H2       0.81625    0.47932    0.79862   1.00
H2       0.81951    0.44172    0.83291   1.00
H2       0.75152    0.48312    0.66144   1.00
H2       0.73758    0.48191    0.61220   1.00
H2       0.78549    0.46952    0.62523   1.00
H2       0.71109    0.54875    0.62457   1.00
H2       0.73120    0.55426    0.67127   1.00
H2       0.74114    0.58878    0.63434   1.00
H2       0.86110    0.64798    0.65640   1.00
H2       0.86932    0.60565    0.68407   1.00
H2       0.88930    0.60965    0.63665   1.00
H2       0.79356    0.60584    0.58162   1.00
H2       0.81821    0.64788    0.59745   1.00
H2       0.84496    0.60915    0.57665   1.00
H2       0.85311    0.46344    0.62994   1.00
H2       0.89774    0.47619    0.60737   1.00
H2       0.88784    0.49166    0.65503   1.00
H2       0.87099    0.50956    0.55069   1.00
H2       0.82407    0.49378    0.56487   1.00
H2       0.83280    0.54343    0.55382   1.00
C4       0.74960    0.74698    0.47916   1.00
C4       0.75019    0.74741    0.52088   1.00
C3       0.76411    0.71558    0.45636   1.00
C3       0.76850    0.71818    0.54384   1.00
C3       0.73425    0.77991    0.45877   1.00
C3       0.73143    0.77860    0.54114   1.00
C2       0.74913    0.74917    0.39488   1.00
C2       0.75087    0.75083    0.60512   1.00
C3       0.76410    0.71671    0.41538   1.00
C3       0.76853    0.71962    0.58481   1.00
C3       0.73383    0.78017    0.41742   1.00
C3       0.73324    0.78039    0.58238   1.00
H1       0.77499    0.69090    0.46885   1.00
H1       0.78257    0.69510    0.53148   1.00
C5       0.71926    0.81227    0.47980   1.00
C5       0.71128    0.80803    0.52020   1.00
H1       0.77524    0.69325    0.40045   1.00
H1       0.78194    0.69749    0.59990   1.00
H1       0.72174    0.80351    0.40320   1.00
H1       0.72184    0.80418    0.59632   1.00
O3       0.71058    0.84640    0.46039   1.00
O3       0.68665    0.83385    0.53901   1.00
Si1      0.74322    0.88100    0.45753   1.00
Si1      0.64159    0.82082    0.54721   1.00
C6       0.71759    0.91123    0.42462   1.00
C6       0.74669    0.90276    0.50402   1.00
C6       0.78796    0.86520    0.43747   1.00
C6       0.62691    0.77342    0.53307   1.00
C6       0.63717    0.82560    0.59802   1.00
C6       0.61132    0.85607    0.52523   1.00
C6       0.69972    0.89032    0.38806   1.00
H2       0.69259    0.92050    0.44209   1.00
C6       0.73631    0.94983    0.40853   1.00
H2       0.71807    0.89639    0.51642   1.00
C6       0.77706    0.88592    0.53366   1.00
C6       0.75137    0.94812    0.50664   1.00
H2       0.77842    0.84902    0.41169   1.00
C6       0.81665    0.89741    0.42228   1.00
C6       0.81476    0.83677    0.46151   1.00
C6       0.63192    0.76156    0.48929   1.00
C6       0.64033    0.73736    0.55775   1.00
H2       0.59544    0.77441    0.53788   1.00
H2       0.65506    0.80189    0.60949   1.00
C6       0.65450    0.86377    0.61622   1.00
C6       0.59559    0.82028    0.61607   1.00
H2       0.61081    0.88001    0.54625   1.00
C6       0.62668    0.87463    0.48664   1.00
C6       0.56761    0.84513    0.51756   1.00
H2       0.68067    0.86621    0.39654   1.00
H2       0.72256    0.87865    0.36910   1.00
H2       0.68190    0.91040    0.37083   1.00
H2       0.71368    0.97185    0.40392   1.00
H2       0.75783    0.96229    0.42822   1.00
H2       0.75058    0.94551    0.38036   1.00
H2       0.77071    0.89598    0.56328   1.00
H2       0.77643    0.85420    0.53468   1.00
H2       0.80663    0.89534    0.52648   1.00
H2       0.72780    0.96315    0.49138   1.00
H2       0.75016    0.95818    0.53692   1.00
H2       0.77930    0.95753    0.49450   1.00
H2       0.82258    0.91911    0.44486   1.00
H2       0.84461    0.88515    0.41292   1.00
H2       0.80504    0.91206    0.39668   1.00
H2       0.83447    0.85248    0.48098   1.00
H2       0.79862    0.81625    0.47932   1.00
H2       0.83291    0.81951    0.44172   1.00
H2       0.66144    0.75152    0.48312   1.00
H2       0.61220    0.73758    0.48191   1.00
H2       0.62523    0.78549    0.46952   1.00
H2       0.62457    0.71109    0.54875   1.00
H2       0.67127    0.73120    0.55426   1.00
H2       0.63434    0.74114    0.58878   1.00
H2       0.65640    0.86110    0.64798   1.00
H2       0.68407    0.86932    0.60565   1.00
H2       0.63665    0.88930    0.60965   1.00
H2       0.58162    0.79356    0.60584   1.00
H2       0.59745    0.81821    0.64788   1.00
H2       0.57665    0.84496    0.60915   1.00
H2       0.62994    0.85311    0.46344   1.00
H2       0.60737    0.89774    0.47619   1.00
H2       0.65503    0.88784    0.49166   1.00
H2       0.55069    0.87099    0.50956   1.00
H2       0.56487    0.82407    0.49378   1.00
H2       0.55382    0.83280    0.54343   1.00
C4       0.24960    0.25302    1.02084   1.00
C4       0.25019    0.25259    0.97912   1.00
C3       0.26411    0.28442    1.04364   1.00
C3       0.26850    0.28182    0.95616   1.00
C3       0.23425    0.22009    1.04123   1.00
C3       0.23143    0.22140    0.95886   1.00
C2       0.24913    0.25083    1.10512   1.00
C2       0.25087    0.24917    0.89488   1.00
C3       0.26410    0.28329    1.08462   1.00
C3       0.26853    0.28038    0.91519   1.00
C3       0.23383    0.21983    1.08258   1.00
C3       0.23324    0.21961    0.91762   1.00
H1       0.27499    0.30910    1.03115   1.00
H1       0.28257    0.30490    0.96852   1.00
C5       0.21926    0.18773    1.02020   1.00
C5       0.21128    0.19197    0.97980   1.00
H1       0.27524    0.30675    1.09955   1.00
H1       0.28194    0.30251    0.90010   1.00
H1       0.22174    0.19649    1.09680   1.00
H1       0.22184    0.19582    0.90368   1.00
O3       0.21058    0.15360    1.03961   1.00
O3       0.18665    0.16615    0.96099   1.00
Si1      0.24322    0.11900    1.04247   1.00
Si1      0.14159    0.17918    0.95279   1.00
C6       0.21759    0.08877    1.07538   1.00
C6       0.24669    0.09724    0.99598   1.00
C6       0.28796    0.13480    1.06253   1.00
C6       0.12691    0.22658    0.96693   1.00
C6       0.13717    0.17440    0.90198   1.00
C6       0.11132    0.14393    0.97477   1.00
C6       0.19972    0.10968    1.11194   1.00
H2       0.19259    0.07950    1.05791   1.00
C6       0.23631    0.05017    1.09147   1.00
H2       0.21807    0.10361    0.98358   1.00
C6       0.27706    0.11408    0.96634   1.00
C6       0.25137    0.05188    0.99336   1.00
H2       0.27842    0.15098    1.08831   1.00
C6       0.31665    0.10259    1.07772   1.00
C6       0.31476    0.16323    1.03849   1.00
C6       0.13192    0.23844    1.01071   1.00
C6       0.14033    0.26264    0.94225   1.00
H2       0.09544    0.22559    0.96212   1.00
H2       0.15506    0.19811    0.89051   1.00
C6       0.15450    0.13623    0.88378   1.00
C6       0.09559    0.17972    0.88393   1.00
H2       0.11081    0.11999    0.95375   1.00
C6       0.12668    0.12537    1.01336   1.00
C6       0.06761    0.15487    0.98244   1.00
H2       0.18067    0.13379    1.10346   1.00
H2       0.22256    0.12135    1.13090   1.00
H2       0.18190    0.08960    1.12917   1.00
H2       0.21368    0.02815    1.09608   1.00
H2       0.25783    0.03771    1.07178   1.00
H2       0.25058    0.05449    1.11964   1.00
H2       0.27071    0.10402    0.93672   1.00
H2       0.27643    0.14580    0.96532   1.00
H2       0.30663    0.10466    0.97352   1.00
H2       0.22780    0.03685    1.00862   1.00
H2       0.25016    0.04182    0.96308   1.00
H2       0.27930    0.04247    1.00550   1.00
H2       0.32258    0.08089    1.05514   1.00
H2       0.34461    0.11485    1.08708   1.00
H2       0.30504    0.08794    1.10332   1.00
H2       0.33447    0.14752    1.01902   1.00
H2       0.29862    0.18375    1.02068   1.00
H2       0.33291    0.18049    1.05828   1.00
H2       0.16144    0.24848    1.01688   1.00
H2       0.11220    0.26242    1.01809   1.00
H2       0.12523    0.21451    1.03048   1.00
H2       0.12457    0.28891    0.95125   1.00
H2       0.17127    0.26880    0.94574   1.00
H2       0.13434    0.25886    0.91122   1.00
H2       0.15640    0.13890    0.85202   1.00
H2       0.18407    0.13068    0.89435   1.00
H2       0.13665    0.11070    0.89035   1.00
H2       0.08162    0.20644    0.89416   1.00
H2       0.09745    0.18179    0.85212   1.00
H2       0.07665    0.15504    0.89085   1.00
H2       0.12994    0.14689    1.03656   1.00
H2       0.10737    0.10226    1.02381   1.00
H2       0.15503    0.11216    1.00834   1.00
H2       0.05069    0.12901    0.99044   1.00
H2       0.06487    0.17593    1.00622   1.00
H2       0.05382    0.16720    0.95657   1.00
C4       0.25302    0.52084    0.74960   1.00
C4       0.25259    0.47912    0.75019   1.00
C3       0.28442    0.54364    0.76411   1.00
C3       0.28182    0.45616    0.76850   1.00
C3       0.22009    0.54123    0.73425   1.00
C3       0.22140    0.45886    0.73143   1.00
C2       0.25083    0.60512    0.74913   1.00
C2       0.24917    0.39488    0.75087   1.00
C3       0.28329    0.58462    0.76410   1.00
C3       0.28038    0.41519    0.76853   1.00
C3       0.21983    0.58258    0.73383   1.00
C3       0.21961    0.41762    0.73324   1.00
H1       0.30910    0.53115    0.77499   1.00
H1       0.30490    0.46852    0.78257   1.00
C5       0.18773    0.52020    0.71926   1.00
C5       0.19197    0.47980    0.71128   1.00
H1       0.30675    0.59955    0.77524   1.00
H1       0.30251    0.40010    0.78194   1.00
H1       0.19649    0.59680    0.72174   1.00
H1       0.19582    0.40368    0.72184   1.00
O3       0.15360    0.53961    0.71058   1.00
O3       0.16615    0.46099    0.68665   1.00
Si1      0.11900    0.54247    0.74322   1.00
Si1      0.17918    0.45279    0.64159   1.00
C6       0.08877    0.57538    0.71759   1.00
C6       0.09724    0.49598    0.74669   1.00
C6       0.13480    0.56253    0.78796   1.00
C6       0.22658    0.46693    0.62691   1.00
C6       0.17440    0.40198    0.63717   1.00
C6       0.14393    0.47477    0.61132   1.00
C6       0.10968    0.61194    0.69972   1.00
H2       0.07950    0.55791    0.69259   1.00
C6       0.05017    0.59147    0.73631   1.00
H2       0.10361    0.48358    0.71807   1.00
C6       0.11408    0.46634    0.77706   1.00
C6       0.05188    0.49336    0.75137   1.00
H2       0.15098    0.58831    0.77842   1.00
C6       0.10259    0.57772    0.81665   1.00
C6       0.16323    0.53849    0.81476   1.00
C6       0.23844    0.51071    0.63192   1.00
C6       0.26264    0.44225    0.64033   1.00
H2       0.22559    0.46212    0.59544   1.00
H2       0.19811    0.39051    0.65506   1.00
C6       0.13623    0.38378    0.65450   1.00
C6       0.17972    0.38393    0.59559   1.00
H2       0.11999    0.45375    0.61081   1.00
C6       0.12537    0.51336    0.62668   1.00
C6       0.15487    0.48244    0.56761   1.00
H2       0.13379    0.60346    0.68067   1.00
H2       0.12135    0.63090    0.72256   1.00
H2       0.08960    0.62917    0.68190   1.00
H2       0.02815    0.59608    0.71368   1.00
H2       0.03771    0.57178    0.75783   1.00
H2       0.05449    0.61964    0.75058   1.00
H2       0.10402    0.43672    0.77071   1.00
H2       0.14580    0.46532    0.77643   1.00
H2       0.10466    0.47352    0.80663   1.00
H2       0.03685    0.50862    0.72780   1.00
H2       0.04182    0.46308    0.75016   1.00
H2       0.04247    0.50550    0.77930   1.00
H2       0.08089    0.55514    0.82258   1.00
H2       0.11485    0.58708    0.84461   1.00
H2       0.08794    0.60332    0.80504   1.00
H2       0.14752    0.51902    0.83447   1.00
H2       0.18375    0.52068    0.79862   1.00
H2       0.18049    0.55828    0.83291   1.00
H2       0.24848    0.51688    0.66144   1.00
H2       0.26242    0.51809    0.61220   1.00
H2       0.21451    0.53048    0.62523   1.00
H2       0.28891    0.45125    0.62457   1.00
H2       0.26880    0.44574    0.67127   1.00
H2       0.25886    0.41122    0.63434   1.00
H2       0.13890    0.35202    0.65640   1.00
H2       0.13068    0.39435    0.68407   1.00
H2       0.11070    0.39035    0.63665   1.00
H2       0.20644    0.39416    0.58162   1.00
H2       0.18179    0.35212    0.59745   1.00
H2       0.15504    0.39085    0.57665   1.00
H2       0.14689    0.53656    0.62994   1.00
H2       0.10226    0.52381    0.60737   1.00
H2       0.11216    0.50834    0.65503   1.00
H2       0.12901    0.49044    0.55069   1.00
H2       0.17593    0.50622    0.56487   1.00
H2       0.16720    0.45657    0.55382   1.00
C4       -0.02084   0.24960    0.74698   1.00
C4       0.02088    0.25019    0.74741   1.00
C3       -0.04364   0.26411    0.71558   1.00
C3       0.04384    0.26850    0.71818   1.00
C3       -0.04123   0.23425    0.77991   1.00
C3       0.04114    0.23143    0.77860   1.00
C2       -0.10512   0.24913    0.74917   1.00
C2       0.10512    0.25087    0.75083   1.00
C3       -0.08462   0.26410    0.71671   1.00
C3       0.08481    0.26853    0.71962   1.00
C3       -0.08258   0.23383    0.78017   1.00
C3       0.08238    0.23324    0.78039   1.00
H1       -0.03115   0.27499    0.69090   1.00
H1       0.03148    0.28257    0.69510   1.00
C5       -0.02020   0.21926    0.81227   1.00
C5       0.02020    0.21128    0.80803   1.00
H1       -0.09955   0.27524    0.69325   1.00
H1       0.09990    0.28194    0.69749   1.00
H1       -0.09680   0.22174    0.80351   1.00
H1       0.09632    0.22184    0.80418   1.00
O3       -0.03961   0.21058    0.84640   1.00
O3       0.03901    0.18665    0.83385   1.00
Si1      -0.04247   0.24322    0.88100   1.00
Si1      0.04721    0.14159    0.82082   1.00
C6       -0.07538   0.21759    0.91123   1.00
C6       0.00402    0.24669    0.90276   1.00
C6       -0.06253   0.28796    0.86520   1.00
C6       0.03307    0.12691    0.77342   1.00
C6       0.09802    0.13717    0.82560   1.00
C6       0.02523    0.11132    0.85607   1.00
C6       -0.11194   0.19972    0.89032   1.00
H2       -0.05791   0.19259    0.92050   1.00
C6       -0.09147   0.23631    0.94983   1.00
H2       0.01642    0.21807    0.89639   1.00
C6       0.03366    0.27706    0.88592   1.00
C6       0.00664    0.25137    0.94812   1.00
H2       -0.08831   0.27842    0.84902   1.00
C6       -0.07772   0.31665    0.89741   1.00
C6       -0.03849   0.31476    0.83677   1.00
C6       -0.01071   0.13192    0.76156   1.00
C6       0.05775    0.14033    0.73736   1.00
H2       0.03788    0.09544    0.77441   1.00
H2       0.10949    0.15506    0.80189   1.00
C6       0.11622    0.15450    0.86377   1.00
C6       0.11607    0.09559    0.82028   1.00
H2       0.04625    0.11081    0.88001   1.00
C6       -0.01336   0.12668    0.87463   1.00
C6       0.01756    0.06761    0.84513   1.00
H2       -0.10346   0.18067    0.86621   1.00
H2       -0.13090   0.22256    0.87865   1.00
H2       -0.12917   0.18190    0.91040   1.00
H2       -0.09608   0.21368    0.97185   1.00
H2       -0.07178   0.25783    0.96229   1.00
H2       -0.11964   0.25058    0.94551   1.00
H2       0.06328    0.27071    0.89598   1.00
H2       0.03468    0.27643    0.85420   1.00
H2       0.02648    0.30663    0.89534   1.00
H2       -0.00862   0.22780    0.96315   1.00
H2       0.03692    0.25016    0.95818   1.00
H2       -0.00550   0.27930    0.95753   1.00
H2       -0.05514   0.32258    0.91911   1.00
H2       -0.08708   0.34461    0.88515   1.00
H2       -0.10332   0.30504    0.91206   1.00
H2       -0.01902   0.33447    0.85248   1.00
H2       -0.02068   0.29862    0.81625   1.00
H2       -0.05828   0.33291    0.81951   1.00
H2       -0.01688   0.16144    0.75152   1.00
H2       -0.01809   0.11220    0.73758   1.00
H2       -0.03048   0.12523    0.78549   1.00
H2       0.04875    0.12457    0.71109   1.00
H2       0.05426    0.17127    0.73120   1.00
H2       0.08878    0.13434    0.74114   1.00
H2       0.14798    0.15640    0.86110   1.00
H2       0.10565    0.18407    0.86932   1.00
H2       0.10965    0.13665    0.88930   1.00
H2       0.10584    0.08162    0.79356   1.00
H2       0.14788    0.09745    0.81821   1.00
H2       0.10915    0.07665    0.84496   1.00
H2       -0.03656   0.12994    0.85311   1.00
H2       -0.02381   0.10737    0.89774   1.00
H2       -0.00834   0.15503    0.88784   1.00
H2       0.00956    0.05069    0.87099   1.00
H2       -0.00622   0.06487    0.82407   1.00
H2       0.04343    0.05382    0.83280   1.00
C4       0.52084    0.24960    0.75302   1.00
C4       0.47912    0.25019    0.75259   1.00
C3       0.54364    0.26411    0.78442   1.00
C3       0.45616    0.26850    0.78182   1.00
C3       0.54123    0.23425    0.72009   1.00
C3       0.45886    0.23143    0.72140   1.00
C2       0.60512    0.24913    0.75083   1.00
C2       0.39488    0.25087    0.74917   1.00
C3       0.58462    0.26410    0.78329   1.00
C3       0.41519    0.26853    0.78038   1.00
C3       0.58258    0.23383    0.71983   1.00
C3       0.41762    0.23324    0.71961   1.00
H1       0.53115    0.27499    0.80910   1.00
H1       0.46852    0.28257    0.80490   1.00
C5       0.52020    0.21926    0.68773   1.00
C5       0.47980    0.21128    0.69197   1.00
H1       0.59955    0.27524    0.80675   1.00
H1       0.40010    0.28194    0.80251   1.00
H1       0.59680    0.22174    0.69649   1.00
H1       0.40368    0.22184    0.69582   1.00
O3       0.53961    0.21058    0.65360   1.00
O3       0.46099    0.18665    0.66615   1.00
Si1      0.54247    0.24322    0.61900   1.00
Si1      0.45279    0.14159    0.67918   1.00
C6       0.57538    0.21759    0.58877   1.00
C6       0.49598    0.24669    0.59724   1.00
C6       0.56253    0.28796    0.63480   1.00
C6       0.46693    0.12691    0.72658   1.00
C6       0.40198    0.13717    0.67440   1.00
C6       0.47477    0.11132    0.64393   1.00
C6       0.61194    0.19972    0.60968   1.00
H2       0.55791    0.19259    0.57950   1.00
C6       0.59147    0.23631    0.55017   1.00
H2       0.48358    0.21807    0.60361   1.00
C6       0.46634    0.27706    0.61408   1.00
C6       0.49336    0.25137    0.55188   1.00
H2       0.58831    0.27842    0.65098   1.00
C6       0.57772    0.31665    0.60259   1.00
C6       0.53849    0.31476    0.66323   1.00
C6       0.51071    0.13192    0.73844   1.00
C6       0.44225    0.14033    0.76264   1.00
H2       0.46212    0.09544    0.72559   1.00
H2       0.39051    0.15506    0.69811   1.00
C6       0.38378    0.15450    0.63623   1.00
C6       0.38393    0.09559    0.67972   1.00
H2       0.45375    0.11081    0.61999   1.00
C6       0.51336    0.12668    0.62537   1.00
C6       0.48244    0.06761    0.65487   1.00
H2       0.60346    0.18067    0.63379   1.00
H2       0.63090    0.22256    0.62135   1.00
H2       0.62917    0.18190    0.58960   1.00
H2       0.59608    0.21368    0.52815   1.00
H2       0.57178    0.25783    0.53771   1.00
H2       0.61964    0.25058    0.55449   1.00
H2       0.43672    0.27071    0.60402   1.00
H2       0.46532    0.27643    0.64580   1.00
H2       0.47352    0.30663    0.60466   1.00
H2       0.50862    0.22780    0.53685   1.00
H2       0.46308    0.25016    0.54182   1.00
H2       0.50550    0.27930    0.54247   1.00
H2       0.55514    0.32258    0.58089   1.00
H2       0.58708    0.34461    0.61485   1.00
H2       0.60332    0.30504    0.58794   1.00
H2       0.51902    0.33447    0.64752   1.00
H2       0.52068    0.29862    0.68375   1.00
H2       0.55828    0.33291    0.68049   1.00
H2       0.51688    0.16144    0.74848   1.00
H2       0.51809    0.11220    0.76242   1.00
H2       0.53048    0.12523    0.71451   1.00
H2       0.45125    0.12457    0.78891   1.00
H2       0.44574    0.17127    0.76880   1.00
H2       0.41122    0.13434    0.75886   1.00
H2       0.35202    0.15640    0.63890   1.00
H2       0.39435    0.18407    0.63068   1.00
H2       0.39035    0.13665    0.61070   1.00
H2       0.39416    0.08162    0.70644   1.00
H2       0.35212    0.09745    0.68179   1.00
H2       0.39085    0.07665    0.65504   1.00
H2       0.53656    0.12994    0.64689   1.00
H2       0.52381    0.10737    0.60226   1.00
H2       0.50834    0.15503    0.61216   1.00
H2       0.49044    0.05069    0.62901   1.00
H2       0.50622    0.06487    0.67593   1.00
H2       0.45657    0.05382    0.66720   1.00
C4       0.24698    -0.02084   0.74960   1.00
C4       0.24741    0.02088    0.75019   1.00
C3       0.21558    -0.04364   0.76411   1.00
C3       0.21818    0.04384    0.76850   1.00
C3       0.27991    -0.04123   0.73425   1.00
C3       0.27860    0.04114    0.73143   1.00
C2       0.24917    -0.10512   0.74913   1.00
C2       0.25083    0.10512    0.75087   1.00
C3       0.21671    -0.08462   0.76410   1.00
C3       0.21962    0.08481    0.76853   1.00
C3       0.28017    -0.08258   0.73383   1.00
C3       0.28039    0.08238    0.73324   1.00
H1       0.19090    -0.03115   0.77499   1.00
H1       0.19510    0.03148    0.78257   1.00
C5       0.31227    -0.02020   0.71926   1.00
C5       0.30803    0.02020    0.71128   1.00
H1       0.19325    -0.09955   0.77524   1.00
H1       0.19749    0.09990    0.78194   1.00
H1       0.30351    -0.09680   0.72174   1.00
H1       0.30418    0.09632    0.72184   1.00
O3       0.34640    -0.03961   0.71058   1.00
O3       0.33385    0.03901    0.68665   1.00
Si1      0.38100    -0.04247   0.74322   1.00
Si1      0.32082    0.04721    0.64159   1.00
C6       0.41123    -0.07538   0.71759   1.00
C6       0.40276    0.00402    0.74669   1.00
C6       0.36520    -0.06253   0.78796   1.00
C6       0.27342    0.03307    0.62691   1.00
C6       0.32560    0.09802    0.63717   1.00
C6       0.35607    0.02523    0.61132   1.00
C6       0.39032    -0.11194   0.69972   1.00
H2       0.42050    -0.05791   0.69259   1.00
C6       0.44983    -0.09147   0.73631   1.00
H2       0.39639    0.01642    0.71807   1.00
C6       0.38592    0.03366    0.77706   1.00
C6       0.44812    0.00664    0.75137   1.00
H2       0.34902    -0.08831   0.77842   1.00
C6       0.39741    -0.07772   0.81665   1.00
C6       0.33677    -0.03849   0.81476   1.00
C6       0.26156    -0.01071   0.63192   1.00
C6       0.23736    0.05775    0.64033   1.00
H2       0.27441    0.03788    0.59544   1.00
H2       0.30189    0.10949    0.65506   1.00
C6       0.36377    0.11622    0.65450   1.00
C6       0.32028    0.11607    0.59559   1.00
H2       0.38001    0.04625    0.61081   1.00
C6       0.37463    -0.01336   0.62668   1.00
C6       0.34513    0.01756    0.56761   1.00
H2       0.36621    -0.10346   0.68067   1.00
H2       0.37865    -0.13090   0.72256   1.00
H2       0.41040    -0.12917   0.68190   1.00
H2       0.47185    -0.09608   0.71368   1.00
H2       0.46229    -0.07178   0.75783   1.00
H2       0.44551    -0.11964   0.75058   1.00
H2       0.39598    0.06328    0.77071   1.00
H2       0.35420    0.03468    0.77643   1.00
H2       0.39534    0.02648    0.80663   1.00
H2       0.46315    -0.00862   0.72780   1.00
H2       0.45818    0.03692    0.75016   1.00
H2       0.45753    -0.00550   0.77930   1.00
H2       0.41911    -0.05514   0.82258   1.00
H2       0.38515    -0.08708   0.84461   1.00
H2       0.41206    -0.10332   0.80504   1.00
H2       0.35248    -0.01902   0.83447   1.00
H2       0.31625    -0.02068   0.79862   1.00
H2       0.31951    -0.05828   0.83291   1.00
H2       0.25152    -0.01688   0.66144   1.00
H2       0.23758    -0.01809   0.61220   1.00
H2       0.28549    -0.03048   0.62523   1.00
H2       0.21109    0.04875    0.62457   1.00
H2       0.23120    0.05426    0.67127   1.00
H2       0.24114    0.08878    0.63434   1.00
H2       0.36110    0.14798    0.65640   1.00
H2       0.36932    0.10565    0.68407   1.00
H2       0.38930    0.10965    0.63665   1.00
H2       0.29356    0.10584    0.58162   1.00
H2       0.31821    0.14788    0.59745   1.00
H2       0.34496    0.10915    0.57665   1.00
H2       0.35311    -0.03656   0.62994   1.00
H2       0.39774    -0.02381   0.60737   1.00
H2       0.38784    -0.00834   0.65503   1.00
H2       0.37099    0.00956    0.55069   1.00
H2       0.32407    -0.00622   0.56487   1.00
H2       0.33280    0.04343    0.55382   1.00
C4       0.24960    0.24698    0.47916   1.00
C4       0.25019    0.24741    0.52088   1.00
C3       0.26411    0.21558    0.45636   1.00
C3       0.26850    0.21818    0.54384   1.00
C3       0.23425    0.27991    0.45877   1.00
C3       0.23143    0.27860    0.54114   1.00
C2       0.24913    0.24917    0.39488   1.00
C2       0.25087    0.25083    0.60512   1.00
C3       0.26410    0.21671    0.41538   1.00
C3       0.26853    0.21962    0.58481   1.00
C3       0.23383    0.28017    0.41742   1.00
C3       0.23324    0.28039    0.58238   1.00
H1       0.27499    0.19090    0.46885   1.00
H1       0.28257    0.19510    0.53148   1.00
C5       0.21926    0.31227    0.47980   1.00
C5       0.21128    0.30803    0.52020   1.00
H1       0.27524    0.19325    0.40045   1.00
H1       0.28194    0.19749    0.59990   1.00
H1       0.22174    0.30351    0.40320   1.00
H1       0.22184    0.30418    0.59632   1.00
O3       0.21058    0.34640    0.46039   1.00
O3       0.18665    0.33385    0.53901   1.00
Si1      0.24322    0.38100    0.45753   1.00
Si1      0.14159    0.32082    0.54721   1.00
C6       0.21759    0.41123    0.42462   1.00
C6       0.24669    0.40276    0.50402   1.00
C6       0.28796    0.36520    0.43747   1.00
C6       0.12691    0.27342    0.53307   1.00
C6       0.13717    0.32560    0.59802   1.00
C6       0.11132    0.35607    0.52523   1.00
C6       0.19972    0.39032    0.38806   1.00
H2       0.19259    0.42050    0.44209   1.00
C6       0.23631    0.44983    0.40853   1.00
H2       0.21807    0.39639    0.51642   1.00
C6       0.27706    0.38592    0.53366   1.00
C6       0.25137    0.44812    0.50664   1.00
H2       0.27842    0.34902    0.41169   1.00
C6       0.31665    0.39741    0.42228   1.00
C6       0.31476    0.33677    0.46151   1.00
C6       0.13192    0.26156    0.48929   1.00
C6       0.14033    0.23736    0.55775   1.00
H2       0.09544    0.27441    0.53788   1.00
H2       0.15506    0.30189    0.60949   1.00
C6       0.15450    0.36377    0.61622   1.00
C6       0.09559    0.32028    0.61607   1.00
H2       0.11081    0.38001    0.54625   1.00
C6       0.12668    0.37463    0.48664   1.00
C6       0.06761    0.34513    0.51756   1.00
H2       0.18067    0.36621    0.39654   1.00
H2       0.22256    0.37865    0.36910   1.00
H2       0.18190    0.41040    0.37083   1.00
H2       0.21368    0.47185    0.40392   1.00
H2       0.25783    0.46229    0.42822   1.00
H2       0.25058    0.44551    0.38036   1.00
H2       0.27071    0.39598    0.56328   1.00
H2       0.27643    0.35420    0.53468   1.00
H2       0.30663    0.39534    0.52648   1.00
H2       0.22780    0.46315    0.49138   1.00
H2       0.25016    0.45818    0.53692   1.00
H2       0.27930    0.45753    0.49450   1.00
H2       0.32258    0.41911    0.44486   1.00
H2       0.34461    0.38515    0.41292   1.00
H2       0.30504    0.41206    0.39668   1.00
H2       0.33447    0.35248    0.48098   1.00
H2       0.29862    0.31625    0.47932   1.00
H2       0.33291    0.31951    0.44172   1.00
H2       0.16144    0.25152    0.48312   1.00
H2       0.11220    0.23758    0.48191   1.00
H2       0.12523    0.28549    0.46952   1.00
H2       0.12457    0.21109    0.54875   1.00
H2       0.17127    0.23120    0.55426   1.00
H2       0.13434    0.24114    0.58878   1.00
H2       0.15640    0.36110    0.64798   1.00
H2       0.18407    0.36932    0.60565   1.00
H2       0.13665    0.38930    0.60965   1.00
H2       0.08162    0.29356    0.60584   1.00
H2       0.09745    0.31821    0.64788   1.00
H2       0.07665    0.34496    0.60915   1.00
H2       0.12994    0.35311    0.46344   1.00
H2       0.10737    0.39774    0.47619   1.00
H2       0.15503    0.38784    0.49166   1.00
H2       0.05069    0.37099    0.50956   1.00
H2       0.06487    0.32407    0.49378   1.00
H2       0.05382    0.33280    0.54343   1.00
C4       0.24960    0.75302    0.52084   1.00
C4       0.25019    0.75259    0.47912   1.00
C3       0.26411    0.78442    0.54364   1.00
C3       0.26850    0.78182    0.45616   1.00
C3       0.23425    0.72009    0.54123   1.00
C3       0.23143    0.72140    0.45886   1.00
C2       0.24913    0.75083    0.60512   1.00
C2       0.25087    0.74917    0.39488   1.00
C3       0.26410    0.78329    0.58462   1.00
C3       0.26853    0.78038    0.41519   1.00
C3       0.23383    0.71983    0.58258   1.00
C3       0.23324    0.71961    0.41762   1.00
H1       0.27499    0.80910    0.53115   1.00
H1       0.28257    0.80490    0.46852   1.00
C5       0.21926    0.68773    0.52020   1.00
C5       0.21128    0.69197    0.47980   1.00
H1       0.27524    0.80675    0.59955   1.00
H1       0.28194    0.80251    0.40010   1.00
H1       0.22174    0.69649    0.59680   1.00
H1       0.22184    0.69582    0.40368   1.00
O3       0.21058    0.65360    0.53961   1.00
O3       0.18665    0.66615    0.46099   1.00
Si1      0.24322    0.61900    0.54247   1.00
Si1      0.14159    0.67918    0.45279   1.00
C6       0.21759    0.58877    0.57538   1.00
C6       0.24669    0.59724    0.49598   1.00
C6       0.28796    0.63480    0.56253   1.00
C6       0.12691    0.72658    0.46693   1.00
C6       0.13717    0.67440    0.40198   1.00
C6       0.11132    0.64393    0.47477   1.00
C6       0.19972    0.60968    0.61194   1.00
H2       0.19259    0.57950    0.55791   1.00
C6       0.23631    0.55017    0.59147   1.00
H2       0.21807    0.60361    0.48358   1.00
C6       0.27706    0.61408    0.46634   1.00
C6       0.25137    0.55188    0.49336   1.00
H2       0.27842    0.65098    0.58831   1.00
C6       0.31665    0.60259    0.57772   1.00
C6       0.31476    0.66323    0.53849   1.00
C6       0.13192    0.73844    0.51071   1.00
C6       0.14033    0.76264    0.44225   1.00
H2       0.09544    0.72559    0.46212   1.00
H2       0.15506    0.69811    0.39051   1.00
C6       0.15450    0.63623    0.38378   1.00
C6       0.09559    0.67972    0.38393   1.00
H2       0.11081    0.61999    0.45375   1.00
C6       0.12668    0.62537    0.51336   1.00
C6       0.06761    0.65487    0.48244   1.00
H2       0.18067    0.63379    0.60346   1.00
H2       0.22256    0.62135    0.63090   1.00
H2       0.18190    0.58960    0.62917   1.00
H2       0.21368    0.52815    0.59608   1.00
H2       0.25783    0.53771    0.57178   1.00
H2       0.25058    0.55449    0.61964   1.00
H2       0.27071    0.60402    0.43672   1.00
H2       0.27643    0.64580    0.46532   1.00
H2       0.30663    0.60466    0.47352   1.00
H2       0.22780    0.53685    0.50862   1.00
H2       0.25016    0.54182    0.46308   1.00
H2       0.27930    0.54247    0.50550   1.00
H2       0.32258    0.58089    0.55514   1.00
H2       0.34461    0.61485    0.58708   1.00
H2       0.30504    0.58794    0.60332   1.00
H2       0.33447    0.64752    0.51902   1.00
H2       0.29862    0.68375    0.52068   1.00
H2       0.33291    0.68049    0.55828   1.00
H2       0.16144    0.74848    0.51688   1.00
H2       0.11220    0.76242    0.51809   1.00
H2       0.12523    0.71451    0.53048   1.00
H2       0.12457    0.78891    0.45125   1.00
H2       0.17127    0.76880    0.44574   1.00
H2       0.13434    0.75886    0.41122   1.00
H2       0.15640    0.63890    0.35202   1.00
H2       0.18407    0.63068    0.39435   1.00
H2       0.13665    0.61070    0.39035   1.00
H2       0.08162    0.70644    0.39416   1.00
H2       0.09745    0.68179    0.35212   1.00
H2       0.07665    0.65504    0.39085   1.00
H2       0.12994    0.64689    0.53656   1.00
H2       0.10737    0.60226    0.52381   1.00
H2       0.15503    0.61216    0.50834   1.00
H2       0.05069    0.62901    0.49044   1.00
H2       0.06487    0.67593    0.50622   1.00
H2       0.05382    0.66720    0.45657   1.00
C4       0.25302    1.02084    0.24960   1.00
C4       0.25259    0.97912    0.25019   1.00
C3       0.28442    1.04364    0.26411   1.00
C3       0.28182    0.95616    0.26850   1.00
C3       0.22009    1.04123    0.23425   1.00
C3       0.22140    0.95886    0.23143   1.00
C2       0.25083    1.10512    0.24913   1.00
C2       0.24917    0.89488    0.25087   1.00
C3       0.28329    1.08462    0.26410   1.00
C3       0.28038    0.91519    0.26853   1.00
C3       0.21983    1.08258    0.23383   1.00
C3       0.21961    0.91762    0.23324   1.00
H1       0.30910    1.03115    0.27499   1.00
H1       0.30490    0.96852    0.28257   1.00
C5       0.18773    1.02020    0.21926   1.00
C5       0.19197    0.97980    0.21128   1.00
H1       0.30675    1.09955    0.27524   1.00
H1       0.30251    0.90010    0.28194   1.00
H1       0.19649    1.09680    0.22174   1.00
H1       0.19582    0.90368    0.22184   1.00
O3       0.15360    1.03961    0.21058   1.00
O3       0.16615    0.96099    0.18665   1.00
Si1      0.11900    1.04247    0.24322   1.00
Si1      0.17918    0.95279    0.14159   1.00
C6       0.08877    1.07538    0.21759   1.00
C6       0.09724    0.99598    0.24669   1.00
C6       0.13480    1.06253    0.28796   1.00
C6       0.22658    0.96693    0.12691   1.00
C6       0.17440    0.90198    0.13717   1.00
C6       0.14393    0.97477    0.11132   1.00
C6       0.10968    1.11194    0.19972   1.00
H2       0.07950    1.05791    0.19259   1.00
C6       0.05017    1.09147    0.23631   1.00
H2       0.10361    0.98358    0.21807   1.00
C6       0.11408    0.96634    0.27706   1.00
C6       0.05188    0.99336    0.25137   1.00
H2       0.15098    1.08831    0.27842   1.00
C6       0.10259    1.07772    0.31665   1.00
C6       0.16323    1.03849    0.31476   1.00
C6       0.23844    1.01071    0.13192   1.00
C6       0.26264    0.94225    0.14033   1.00
H2       0.22559    0.96212    0.09544   1.00
H2       0.19811    0.89051    0.15506   1.00
C6       0.13623    0.88378    0.15450   1.00
C6       0.17972    0.88393    0.09559   1.00
H2       0.11999    0.95375    0.11081   1.00
C6       0.12537    1.01336    0.12668   1.00
C6       0.15487    0.98244    0.06761   1.00
H2       0.13379    1.10346    0.18067   1.00
H2       0.12135    1.13090    0.22256   1.00
H2       0.08960    1.12917    0.18190   1.00
H2       0.02815    1.09608    0.21368   1.00
H2       0.03771    1.07178    0.25783   1.00
H2       0.05449    1.11964    0.25058   1.00
H2       0.10402    0.93672    0.27071   1.00
H2       0.14580    0.96532    0.27643   1.00
H2       0.10466    0.97352    0.30663   1.00
H2       0.03685    1.00862    0.22780   1.00
H2       0.04182    0.96308    0.25016   1.00
H2       0.04247    1.00550    0.27930   1.00
H2       0.08089    1.05514    0.32258   1.00
H2       0.11485    1.08708    0.34461   1.00
H2       0.08794    1.10332    0.30504   1.00
H2       0.14752    1.01902    0.33447   1.00
H2       0.18375    1.02068    0.29862   1.00
H2       0.18049    1.05828    0.33291   1.00
H2       0.24848    1.01688    0.16144   1.00
H2       0.26242    1.01809    0.11220   1.00
H2       0.21451    1.03048    0.12523   1.00
H2       0.28891    0.95125    0.12457   1.00
H2       0.26880    0.94574    0.17127   1.00
H2       0.25886    0.91122    0.13434   1.00
H2       0.13890    0.85202    0.15640   1.00
H2       0.13068    0.89435    0.18407   1.00
H2       0.11070    0.89035    0.13665   1.00
H2       0.20644    0.89416    0.08162   1.00
H2       0.18179    0.85212    0.09745   1.00
H2       0.15504    0.89085    0.07665   1.00
H2       0.14689    1.03656    0.12994   1.00
H2       0.10226    1.02381    0.10737   1.00
H2       0.11216    1.00834    0.15503   1.00
H2       0.12901    0.99044    0.05069   1.00
H2       0.17593    1.00622    0.06487   1.00
H2       0.16720    0.95657    0.05382   1.00
C4       -0.02084   0.74960    0.24698   1.00
C4       0.02088    0.75019    0.24741   1.00
C3       -0.04364   0.76411    0.21558   1.00
C3       0.04384    0.76850    0.21818   1.00
C3       -0.04123   0.73425    0.27991   1.00
C3       0.04114    0.73143    0.27860   1.00
C2       -0.10512   0.74913    0.24917   1.00
C2       0.10512    0.75087    0.25083   1.00
C3       -0.08462   0.76410    0.21671   1.00
C3       0.08481    0.76853    0.21962   1.00
C3       -0.08258   0.73383    0.28017   1.00
C3       0.08238    0.73324    0.28039   1.00
H1       -0.03115   0.77499    0.19090   1.00
H1       0.03148    0.78257    0.19510   1.00
C5       -0.02020   0.71926    0.31227   1.00
C5       0.02020    0.71128    0.30803   1.00
H1       -0.09955   0.77524    0.19325   1.00
H1       0.09990    0.78194    0.19749   1.00
H1       -0.09680   0.72174    0.30351   1.00
H1       0.09632    0.72184    0.30418   1.00
O3       -0.03961   0.71058    0.34640   1.00
O3       0.03901    0.68665    0.33385   1.00
Si1      -0.04247   0.74322    0.38100   1.00
Si1      0.04721    0.64159    0.32082   1.00
C6       -0.07538   0.71759    0.41123   1.00
C6       0.00402    0.74669    0.40276   1.00
C6       -0.06253   0.78796    0.36520   1.00
C6       0.03307    0.62691    0.27342   1.00
C6       0.09802    0.63717    0.32560   1.00
C6       0.02523    0.61132    0.35607   1.00
C6       -0.11194   0.69972    0.39032   1.00
H2       -0.05791   0.69259    0.42050   1.00
C6       -0.09147   0.73631    0.44983   1.00
H2       0.01642    0.71807    0.39639   1.00
C6       0.03366    0.77706    0.38592   1.00
C6       0.00664    0.75137    0.44812   1.00
H2       -0.08831   0.77842    0.34902   1.00
C6       -0.07772   0.81665    0.39741   1.00
C6       -0.03849   0.81476    0.33677   1.00
C6       -0.01071   0.63192    0.26156   1.00
C6       0.05775    0.64033    0.23736   1.00
H2       0.03788    0.59544    0.27441   1.00
H2       0.10949    0.65506    0.30189   1.00
C6       0.11622    0.65450    0.36377   1.00
C6       0.11607    0.59559    0.32028   1.00
H2       0.04625    0.61081    0.38001   1.00
C6       -0.01336   0.62668    0.37463   1.00
C6       0.01756    0.56761    0.34513   1.00
H2       -0.10346   0.68067    0.36621   1.00
H2       -0.13090   0.72256    0.37865   1.00
H2       -0.12917   0.68190    0.41040   1.00
H2       -0.09608   0.71368    0.47185   1.00
H2       -0.07178   0.75783    0.46229   1.00
H2       -0.11964   0.75058    0.44551   1.00
H2       0.06328    0.77071    0.39598   1.00
H2       0.03468    0.77643    0.35420   1.00
H2       0.02648    0.80663    0.39534   1.00
H2       -0.00862   0.72780    0.46315   1.00
H2       0.03692    0.75016    0.45818   1.00
H2       -0.00550   0.77930    0.45753   1.00
H2       -0.05514   0.82258    0.41911   1.00
H2       -0.08708   0.84461    0.38515   1.00
H2       -0.10332   0.80504    0.41206   1.00
H2       -0.01902   0.83447    0.35248   1.00
H2       -0.02068   0.79862    0.31625   1.00
H2       -0.05828   0.83291    0.31951   1.00
H2       -0.01688   0.66144    0.25152   1.00
H2       -0.01809   0.61220    0.23758   1.00
H2       -0.03048   0.62523    0.28549   1.00
H2       0.04875    0.62457    0.21109   1.00
H2       0.05426    0.67127    0.23120   1.00
H2       0.08878    0.63434    0.24114   1.00
H2       0.14798    0.65640    0.36110   1.00
H2       0.10565    0.68407    0.36932   1.00
H2       0.10965    0.63665    0.38930   1.00
H2       0.10584    0.58162    0.29356   1.00
H2       0.14788    0.59745    0.31821   1.00
H2       0.10915    0.57665    0.34496   1.00
H2       -0.03656   0.62994    0.35311   1.00
H2       -0.02381   0.60737    0.39774   1.00
H2       -0.00834   0.65503    0.38784   1.00
H2       0.00956    0.55069    0.37099   1.00
H2       -0.00622   0.56487    0.32407   1.00
H2       0.04343    0.55382    0.33280   1.00
C4       0.52084    0.74960    0.25302   1.00
C4       0.47912    0.75019    0.25259   1.00
C3       0.54364    0.76411    0.28442   1.00
C3       0.45616    0.76850    0.28182   1.00
C3       0.54123    0.73425    0.22009   1.00
C3       0.45886    0.73143    0.22140   1.00
C2       0.60512    0.74913    0.25083   1.00
C2       0.39488    0.75087    0.24917   1.00
C3       0.58462    0.76410    0.28329   1.00
C3       0.41519    0.76853    0.28038   1.00
C3       0.58258    0.73383    0.21983   1.00
C3       0.41762    0.73324    0.21961   1.00
H1       0.53115    0.77499    0.30910   1.00
H1       0.46852    0.78257    0.30490   1.00
C5       0.52020    0.71926    0.18773   1.00
C5       0.47980    0.71128    0.19197   1.00
H1       0.59955    0.77524    0.30675   1.00
H1       0.40010    0.78194    0.30251   1.00
H1       0.59680    0.72174    0.19649   1.00
H1       0.40368    0.72184    0.19582   1.00
O3       0.53961    0.71058    0.15360   1.00
O3       0.46099    0.68665    0.16615   1.00
Si1      0.54247    0.74322    0.11900   1.00
Si1      0.45279    0.64159    0.17918   1.00
C6       0.57538    0.71759    0.08877   1.00
C6       0.49598    0.74669    0.09724   1.00
C6       0.56253    0.78796    0.13480   1.00
C6       0.46693    0.62691    0.22658   1.00
C6       0.40198    0.63717    0.17440   1.00
C6       0.47477    0.61132    0.14393   1.00
C6       0.61194    0.69972    0.10968   1.00
H2       0.55791    0.69259    0.07950   1.00
C6       0.59147    0.73631    0.05017   1.00
H2       0.48358    0.71807    0.10361   1.00
C6       0.46634    0.77706    0.11408   1.00
C6       0.49336    0.75137    0.05188   1.00
H2       0.58831    0.77842    0.15098   1.00
C6       0.57772    0.81665    0.10259   1.00
C6       0.53849    0.81476    0.16323   1.00
C6       0.51071    0.63192    0.23844   1.00
C6       0.44225    0.64033    0.26264   1.00
H2       0.46212    0.59544    0.22559   1.00
H2       0.39051    0.65506    0.19811   1.00
C6       0.38378    0.65450    0.13623   1.00
C6       0.38393    0.59559    0.17972   1.00
H2       0.45375    0.61081    0.11999   1.00
C6       0.51336    0.62668    0.12537   1.00
C6       0.48244    0.56761    0.15487   1.00
H2       0.60346    0.68067    0.13379   1.00
H2       0.63090    0.72256    0.12135   1.00
H2       0.62917    0.68190    0.08960   1.00
H2       0.59608    0.71368    0.02815   1.00
H2       0.57178    0.75783    0.03771   1.00
H2       0.61964    0.75058    0.05449   1.00
H2       0.43672    0.77071    0.10402   1.00
H2       0.46532    0.77643    0.14580   1.00
H2       0.47352    0.80663    0.10466   1.00
H2       0.50862    0.72780    0.03685   1.00
H2       0.46308    0.75016    0.04182   1.00
H2       0.50550    0.77930    0.04247   1.00
H2       0.55514    0.82258    0.08089   1.00
H2       0.58708    0.84461    0.11485   1.00
H2       0.60332    0.80504    0.08794   1.00
H2       0.51902    0.83447    0.14752   1.00
H2       0.52068    0.79862    0.18375   1.00
H2       0.55828    0.83291    0.18049   1.00
H2       0.51688    0.66144    0.24848   1.00
H2       0.51809    0.61220    0.26242   1.00
H2       0.53048    0.62523    0.21451   1.00
H2       0.45125    0.62457    0.28891   1.00
H2       0.44574    0.67127    0.26880   1.00
H2       0.41122    0.63434    0.25886   1.00
H2       0.35202    0.65640    0.13890   1.00
H2       0.39435    0.68407    0.13068   1.00
H2       0.39035    0.63665    0.11070   1.00
H2       0.39416    0.58162    0.20644   1.00
H2       0.35212    0.59745    0.18179   1.00
H2       0.39085    0.57665    0.15504   1.00
H2       0.53656    0.62994    0.14689   1.00
H2       0.52381    0.60737    0.10226   1.00
H2       0.50834    0.65503    0.11216   1.00
H2       0.49044    0.55069    0.12901   1.00
H2       0.50622    0.56487    0.17593   1.00
H2       0.45657    0.55382    0.16720   1.00
C4       0.24698    0.47916    0.24960   1.00
C4       0.24741    0.52088    0.25019   1.00
C3       0.21558    0.45636    0.26411   1.00
C3       0.21818    0.54384    0.26850   1.00
C3       0.27991    0.45877    0.23425   1.00
C3       0.27860    0.54114    0.23143   1.00
C2       0.24917    0.39488    0.24913   1.00
C2       0.25083    0.60512    0.25087   1.00
C3       0.21671    0.41538    0.26410   1.00
C3       0.21962    0.58481    0.26853   1.00
C3       0.28017    0.41742    0.23383   1.00
C3       0.28039    0.58238    0.23324   1.00
H1       0.19090    0.46885    0.27499   1.00
H1       0.19510    0.53148    0.28257   1.00
C5       0.31227    0.47980    0.21926   1.00
C5       0.30803    0.52020    0.21128   1.00
H1       0.19325    0.40045    0.27524   1.00
H1       0.19749    0.59990    0.28194   1.00
H1       0.30351    0.40320    0.22174   1.00
H1       0.30418    0.59632    0.22184   1.00
O3       0.34640    0.46039    0.21058   1.00
O3       0.33385    0.53901    0.18665   1.00
Si1      0.38100    0.45753    0.24322   1.00
Si1      0.32082    0.54721    0.14159   1.00
C6       0.41123    0.42462    0.21759   1.00
C6       0.40276    0.50402    0.24669   1.00
C6       0.36520    0.43747    0.28796   1.00
C6       0.27342    0.53307    0.12691   1.00
C6       0.32560    0.59802    0.13717   1.00
C6       0.35607    0.52523    0.11132   1.00
C6       0.39032    0.38806    0.19972   1.00
H2       0.42050    0.44209    0.19259   1.00
C6       0.44983    0.40853    0.23631   1.00
H2       0.39639    0.51642    0.21807   1.00
C6       0.38592    0.53366    0.27706   1.00
C6       0.44812    0.50664    0.25137   1.00
H2       0.34902    0.41169    0.27842   1.00
C6       0.39741    0.42228    0.31665   1.00
C6       0.33677    0.46151    0.31476   1.00
C6       0.26156    0.48929    0.13192   1.00
C6       0.23736    0.55775    0.14033   1.00
H2       0.27441    0.53788    0.09544   1.00
H2       0.30189    0.60949    0.15506   1.00
C6       0.36377    0.61622    0.15450   1.00
C6       0.32028    0.61607    0.09559   1.00
H2       0.38001    0.54625    0.11081   1.00
C6       0.37463    0.48664    0.12668   1.00
C6       0.34513    0.51756    0.06761   1.00
H2       0.36621    0.39654    0.18067   1.00
H2       0.37865    0.36910    0.22256   1.00
H2       0.41040    0.37083    0.18190   1.00
H2       0.47185    0.40392    0.21368   1.00
H2       0.46229    0.42822    0.25783   1.00
H2       0.44551    0.38036    0.25058   1.00
H2       0.39598    0.56328    0.27071   1.00
H2       0.35420    0.53468    0.27643   1.00
H2       0.39534    0.52648    0.30663   1.00
H2       0.46315    0.49138    0.22780   1.00
H2       0.45818    0.53692    0.25016   1.00
H2       0.45753    0.49450    0.27930   1.00
H2       0.41911    0.44486    0.32258   1.00
H2       0.38515    0.41292    0.34461   1.00
H2       0.41206    0.39668    0.30504   1.00
H2       0.35248    0.48098    0.33447   1.00
H2       0.31625    0.47932    0.29862   1.00
H2       0.31951    0.44172    0.33291   1.00
H2       0.25152    0.48312    0.16144   1.00
H2       0.23758    0.48191    0.11220   1.00
H2       0.28549    0.46952    0.12523   1.00
H2       0.21109    0.54875    0.12457   1.00
H2       0.23120    0.55426    0.17127   1.00
H2       0.24114    0.58878    0.13434   1.00
H2       0.36110    0.64798    0.15640   1.00
H2       0.36932    0.60565    0.18407   1.00
H2       0.38930    0.60965    0.13665   1.00
H2       0.29356    0.60584    0.08162   1.00
H2       0.31821    0.64788    0.09745   1.00
H2       0.34496    0.60915    0.07665   1.00
H2       0.35311    0.46344    0.12994   1.00
H2       0.39774    0.47619    0.10737   1.00
H2       0.38784    0.49166    0.15503   1.00
H2       0.37099    0.50956    0.05069   1.00
H2       0.32407    0.49378    0.06487   1.00
H2       0.33280    0.54343    0.05382   1.00
C4       0.24960    0.74698    -0.02084   1.00
C4       0.25019    0.74741    0.02088   1.00
C3       0.26411    0.71558    -0.04364   1.00
C3       0.26850    0.71818    0.04384   1.00
C3       0.23425    0.77991    -0.04123   1.00
C3       0.23143    0.77860    0.04114   1.00
C2       0.24913    0.74917    -0.10512   1.00
C2       0.25087    0.75083    0.10512   1.00
C3       0.26410    0.71671    -0.08462   1.00
C3       0.26853    0.71962    0.08481   1.00
C3       0.23383    0.78017    -0.08258   1.00
C3       0.23324    0.78039    0.08238   1.00
H1       0.27499    0.69090    -0.03115   1.00
H1       0.28257    0.69510    0.03148   1.00
C5       0.21926    0.81227    -0.02020   1.00
C5       0.21128    0.80803    0.02020   1.00
H1       0.27524    0.69325    -0.09955   1.00
H1       0.28194    0.69749    0.09990   1.00
H1       0.22174    0.80351    -0.09680   1.00
H1       0.22184    0.80418    0.09632   1.00
O3       0.21058    0.84640    -0.03961   1.00
O3       0.18665    0.83385    0.03901   1.00
Si1      0.24322    0.88100    -0.04247   1.00
Si1      0.14159    0.82082    0.04721   1.00
C6       0.21759    0.91123    -0.07538   1.00
C6       0.24669    0.90276    0.00402   1.00
C6       0.28796    0.86520    -0.06253   1.00
C6       0.12691    0.77342    0.03307   1.00
C6       0.13717    0.82560    0.09802   1.00
C6       0.11132    0.85607    0.02523   1.00
C6       0.19972    0.89032    -0.11194   1.00
H2       0.19259    0.92050    -0.05791   1.00
C6       0.23631    0.94983    -0.09147   1.00
H2       0.21807    0.89639    0.01642   1.00
C6       0.27706    0.88592    0.03366   1.00
C6       0.25137    0.94812    0.00664   1.00
H2       0.27842    0.84902    -0.08831   1.00
C6       0.31665    0.89741    -0.07772   1.00
C6       0.31476    0.83677    -0.03849   1.00
C6       0.13192    0.76156    -0.01071   1.00
C6       0.14033    0.73736    0.05775   1.00
H2       0.09544    0.77441    0.03788   1.00
H2       0.15506    0.80189    0.10949   1.00
C6       0.15450    0.86377    0.11622   1.00
C6       0.09559    0.82028    0.11607   1.00
H2       0.11081    0.88001    0.04625   1.00
C6       0.12668    0.87463    -0.01336   1.00
C6       0.06761    0.84513    0.01756   1.00
H2       0.18067    0.86621    -0.10346   1.00
H2       0.22256    0.87865    -0.13090   1.00
H2       0.18190    0.91040    -0.12917   1.00
H2       0.21368    0.97185    -0.09608   1.00
H2       0.25783    0.96229    -0.07178   1.00
H2       0.25058    0.94551    -0.11964   1.00
H2       0.27071    0.89598    0.06328   1.00
H2       0.27643    0.85420    0.03468   1.00
H2       0.30663    0.89534    0.02648   1.00
H2       0.22780    0.96315    -0.00862   1.00
H2       0.25016    0.95818    0.03692   1.00
H2       0.27930    0.95753    -0.00550   1.00
H2       0.32258    0.91911    -0.05514   1.00
H2       0.34461    0.88515    -0.08708   1.00
H2       0.30504    0.91206    -0.10332   1.00
H2       0.33447    0.85248    -0.01902   1.00
H2       0.29862    0.81625    -0.02068   1.00
H2       0.33291    0.81951    -0.05828   1.00
H2       0.16144    0.75152    -0.01688   1.00
H2       0.11220    0.73758    -0.01809   1.00
H2       0.12523    0.78549    -0.03048   1.00
H2       0.12457    0.71109    0.04875   1.00
H2       0.17127    0.73120    0.05426   1.00
H2       0.13434    0.74114    0.08878   1.00
H2       0.15640    0.86110    0.14798   1.00
H2       0.18407    0.86932    0.10565   1.00
H2       0.13665    0.88930    0.10965   1.00
H2       0.08162    0.79356    0.10584   1.00
H2       0.09745    0.81821    0.14788   1.00
H2       0.07665    0.84496    0.10915   1.00
H2       0.12994    0.85311    -0.03656   1.00
H2       0.10737    0.89774    -0.02381   1.00
H2       0.15503    0.88784    -0.00834   1.00
H2       0.05069    0.87099    0.00956   1.00
H2       0.06487    0.82407    -0.00622   1.00
H2       0.05382    0.83280    0.04343   1.00
C4       0.74960    0.25302    0.52084   1.00
C4       0.75019    0.25259    0.47912   1.00
C3       0.76411    0.28442    0.54364   1.00
C3       0.76850    0.28182    0.45616   1.00
C3       0.73425    0.22009    0.54123   1.00
C3       0.73143    0.22140    0.45886   1.00
C2       0.74913    0.25083    0.60512   1.00
C2       0.75087    0.24917    0.39488   1.00
C3       0.76410    0.28329    0.58462   1.00
C3       0.76853    0.28038    0.41519   1.00
C3       0.73383    0.21983    0.58258   1.00
C3       0.73324    0.21961    0.41762   1.00
H1       0.77499    0.30910    0.53115   1.00
H1       0.78257    0.30490    0.46852   1.00
C5       0.71926    0.18773    0.52020   1.00
C5       0.71128    0.19197    0.47980   1.00
H1       0.77524    0.30675    0.59955   1.00
H1       0.78194    0.30251    0.40010   1.00
H1       0.72174    0.19649    0.59680   1.00
H1       0.72184    0.19582    0.40368   1.00
O3       0.71058    0.15360    0.53961   1.00
O3       0.68665    0.16615    0.46099   1.00
Si1      0.74322    0.11900    0.54247   1.00
Si1      0.64159    0.17918    0.45279   1.00
C6       0.71759    0.08877    0.57538   1.00
C6       0.74669    0.09724    0.49598   1.00
C6       0.78796    0.13480    0.56253   1.00
C6       0.62691    0.22658    0.46693   1.00
C6       0.63717    0.17440    0.40198   1.00
C6       0.61132    0.14393    0.47477   1.00
C6       0.69972    0.10968    0.61194   1.00
H2       0.69259    0.07950    0.55791   1.00
C6       0.73631    0.05017    0.59147   1.00
H2       0.71807    0.10361    0.48358   1.00
C6       0.77706    0.11408    0.46634   1.00
C6       0.75137    0.05188    0.49336   1.00
H2       0.77842    0.15098    0.58831   1.00
C6       0.81665    0.10259    0.57772   1.00
C6       0.81476    0.16323    0.53849   1.00
C6       0.63192    0.23844    0.51071   1.00
C6       0.64033    0.26264    0.44225   1.00
H2       0.59544    0.22559    0.46212   1.00
H2       0.65506    0.19811    0.39051   1.00
C6       0.65450    0.13623    0.38378   1.00
C6       0.59559    0.17972    0.38393   1.00
H2       0.61081    0.11999    0.45375   1.00
C6       0.62668    0.12537    0.51336   1.00
C6       0.56761    0.15487    0.48244   1.00
H2       0.68067    0.13379    0.60346   1.00
H2       0.72256    0.12135    0.63090   1.00
H2       0.68190    0.08960    0.62917   1.00
H2       0.71368    0.02815    0.59608   1.00
H2       0.75783    0.03771    0.57178   1.00
H2       0.75058    0.05449    0.61964   1.00
H2       0.77071    0.10402    0.43672   1.00
H2       0.77643    0.14580    0.46532   1.00
H2       0.80663    0.10466    0.47352   1.00
H2       0.72780    0.03685    0.50862   1.00
H2       0.75016    0.04182    0.46308   1.00
H2       0.77930    0.04247    0.50550   1.00
H2       0.82258    0.08089    0.55514   1.00
H2       0.84461    0.11485    0.58708   1.00
H2       0.80504    0.08794    0.60332   1.00
H2       0.83447    0.14752    0.51902   1.00
H2       0.79862    0.18375    0.52068   1.00
H2       0.83291    0.18049    0.55828   1.00
H2       0.66144    0.24848    0.51688   1.00
H2       0.61220    0.26242    0.51809   1.00
H2       0.62523    0.21451    0.53048   1.00
H2       0.62457    0.28891    0.45125   1.00
H2       0.67127    0.26880    0.44574   1.00
H2       0.63434    0.25886    0.41122   1.00
H2       0.65640    0.13890    0.35202   1.00
H2       0.68407    0.13068    0.39435   1.00
H2       0.63665    0.11070    0.39035   1.00
H2       0.58162    0.20644    0.39416   1.00
H2       0.59745    0.18179    0.35212   1.00
H2       0.57665    0.15504    0.39085   1.00
H2       0.62994    0.14689    0.53656   1.00
H2       0.60737    0.10226    0.52381   1.00
H2       0.65503    0.11216    0.50834   1.00
H2       0.55069    0.12901    0.49044   1.00
H2       0.56487    0.17593    0.50622   1.00
H2       0.55382    0.16720    0.45657   1.00
C4       0.75302    0.52084    0.24960   1.00
C4       0.75259    0.47912    0.25019   1.00
C3       0.78442    0.54364    0.26411   1.00
C3       0.78182    0.45616    0.26850   1.00
C3       0.72009    0.54123    0.23425   1.00
C3       0.72140    0.45886    0.23143   1.00
C2       0.75083    0.60512    0.24913   1.00
C2       0.74917    0.39488    0.25087   1.00
C3       0.78329    0.58462    0.26410   1.00
C3       0.78038    0.41519    0.26853   1.00
C3       0.71983    0.58258    0.23383   1.00
C3       0.71961    0.41762    0.23324   1.00
H1       0.80910    0.53115    0.27499   1.00
H1       0.80490    0.46852    0.28257   1.00
C5       0.68773    0.52020    0.21926   1.00
C5       0.69197    0.47980    0.21128   1.00
H1       0.80675    0.59955    0.27524   1.00
H1       0.80251    0.40010    0.28194   1.00
H1       0.69649    0.59680    0.22174   1.00
H1       0.69582    0.40368    0.22184   1.00
O3       0.65360    0.53961    0.21058   1.00
O3       0.66615    0.46099    0.18665   1.00
Si1      0.61900    0.54247    0.24322   1.00
Si1      0.67918    0.45279    0.14159   1.00
C6       0.58877    0.57538    0.21759   1.00
C6       0.59724    0.49598    0.24669   1.00
C6       0.63480    0.56253    0.28796   1.00
C6       0.72658    0.46693    0.12691   1.00
C6       0.67440    0.40198    0.13717   1.00
C6       0.64393    0.47477    0.11132   1.00
C6       0.60968    0.61194    0.19972   1.00
H2       0.57950    0.55791    0.19259   1.00
C6       0.55017    0.59147    0.23631   1.00
H2       0.60361    0.48358    0.21807   1.00
C6       0.61408    0.46634    0.27706   1.00
C6       0.55188    0.49336    0.25137   1.00
H2       0.65098    0.58831    0.27842   1.00
C6       0.60259    0.57772    0.31665   1.00
C6       0.66323    0.53849    0.31476   1.00
C6       0.73844    0.51071    0.13192   1.00
C6       0.76264    0.44225    0.14033   1.00
H2       0.72559    0.46212    0.09544   1.00
H2       0.69811    0.39051    0.15506   1.00
C6       0.63623    0.38378    0.15450   1.00
C6       0.67972    0.38393    0.09559   1.00
H2       0.61999    0.45375    0.11081   1.00
C6       0.62537    0.51336    0.12668   1.00
C6       0.65487    0.48244    0.06761   1.00
H2       0.63379    0.60346    0.18067   1.00
H2       0.62135    0.63090    0.22256   1.00
H2       0.58960    0.62917    0.18190   1.00
H2       0.52815    0.59608    0.21368   1.00
H2       0.53771    0.57178    0.25783   1.00
H2       0.55449    0.61964    0.25058   1.00
H2       0.60402    0.43672    0.27071   1.00
H2       0.64580    0.46532    0.27643   1.00
H2       0.60466    0.47352    0.30663   1.00
H2       0.53685    0.50862    0.22780   1.00
H2       0.54182    0.46308    0.25016   1.00
H2       0.54247    0.50550    0.27930   1.00
H2       0.58089    0.55514    0.32258   1.00
H2       0.61485    0.58708    0.34461   1.00
H2       0.58794    0.60332    0.30504   1.00
H2       0.64752    0.51902    0.33447   1.00
H2       0.68375    0.52068    0.29862   1.00
H2       0.68049    0.55828    0.33291   1.00
H2       0.74848    0.51688    0.16144   1.00
H2       0.76242    0.51809    0.11220   1.00
H2       0.71451    0.53048    0.12523   1.00
H2       0.78891    0.45125    0.12457   1.00
H2       0.76880    0.44574    0.17127   1.00
H2       0.75886    0.41122    0.13434   1.00
H2       0.63890    0.35202    0.15640   1.00
H2       0.63068    0.39435    0.18407   1.00
H2       0.61070    0.39035    0.13665   1.00
H2       0.70644    0.39416    0.08162   1.00
H2       0.68179    0.35212    0.09745   1.00
H2       0.65504    0.39085    0.07665   1.00
H2       0.64689    0.53656    0.12994   1.00
H2       0.60226    0.52381    0.10737   1.00
H2       0.61216    0.50834    0.15503   1.00
H2       0.62901    0.49044    0.05069   1.00
H2       0.67593    0.50622    0.06487   1.00
H2       0.66720    0.45657    0.05382   1.00
C4       0.47916    0.24960    0.24698   1.00
C4       0.52088    0.25019    0.24741   1.00
C3       0.45636    0.26411    0.21558   1.00
C3       0.54384    0.26850    0.21818   1.00
C3       0.45877    0.23425    0.27991   1.00
C3       0.54114    0.23143    0.27860   1.00
C2       0.39488    0.24913    0.24917   1.00
C2       0.60512    0.25087    0.25083   1.00
C3       0.41538    0.26410    0.21671   1.00
C3       0.58481    0.26853    0.21962   1.00
C3       0.41742    0.23383    0.28017   1.00
C3       0.58238    0.23324    0.28039   1.00
H1       0.46885    0.27499    0.19090   1.00
H1       0.53148    0.28257    0.19510   1.00
C5       0.47980    0.21926    0.31227   1.00
C5       0.52020    0.21128    0.30803   1.00
H1       0.40045    0.27524    0.19325   1.00
H1       0.59990    0.28194    0.19749   1.00
H1       0.40320    0.22174    0.30351   1.00
H1       0.59632    0.22184    0.30418   1.00
O3       0.46039    0.21058    0.34640   1.00
O3       0.53901    0.18665    0.33385   1.00
Si1      0.45753    0.24322    0.38100   1.00
Si1      0.54721    0.14159    0.32082   1.00
C6       0.42462    0.21759    0.41123   1.00
C6       0.50402    0.24669    0.40276   1.00
C6       0.43747    0.28796    0.36520   1.00
C6       0.53307    0.12691    0.27342   1.00
C6       0.59802    0.13717    0.32560   1.00
C6       0.52523    0.11132    0.35607   1.00
C6       0.38806    0.19972    0.39032   1.00
H2       0.44209    0.19259    0.42050   1.00
C6       0.40853    0.23631    0.44983   1.00
H2       0.51642    0.21807    0.39639   1.00
C6       0.53366    0.27706    0.38592   1.00
C6       0.50664    0.25137    0.44812   1.00
H2       0.41169    0.27842    0.34902   1.00
C6       0.42228    0.31665    0.39741   1.00
C6       0.46151    0.31476    0.33677   1.00
C6       0.48929    0.13192    0.26156   1.00
C6       0.55775    0.14033    0.23736   1.00
H2       0.53788    0.09544    0.27441   1.00
H2       0.60949    0.15506    0.30189   1.00
C6       0.61622    0.15450    0.36377   1.00
C6       0.61607    0.09559    0.32028   1.00
H2       0.54625    0.11081    0.38001   1.00
C6       0.48664    0.12668    0.37463   1.00
C6       0.51756    0.06761    0.34513   1.00
H2       0.39654    0.18067    0.36621   1.00
H2       0.36910    0.22256    0.37865   1.00
H2       0.37083    0.18190    0.41040   1.00
H2       0.40392    0.21368    0.47185   1.00
H2       0.42822    0.25783    0.46229   1.00
H2       0.38036    0.25058    0.44551   1.00
H2       0.56328    0.27071    0.39598   1.00
H2       0.53468    0.27643    0.35420   1.00
H2       0.52648    0.30663    0.39534   1.00
H2       0.49138    0.22780    0.46315   1.00
H2       0.53692    0.25016    0.45818   1.00
H2       0.49450    0.27930    0.45753   1.00
H2       0.44486    0.32258    0.41911   1.00
H2       0.41292    0.34461    0.38515   1.00
H2       0.39668    0.30504    0.41206   1.00
H2       0.48098    0.33447    0.35248   1.00
H2       0.47932    0.29862    0.31625   1.00
H2       0.44172    0.33291    0.31951   1.00
H2       0.48312    0.16144    0.25152   1.00
H2       0.48191    0.11220    0.23758   1.00
H2       0.46952    0.12523    0.28549   1.00
H2       0.54875    0.12457    0.21109   1.00
H2       0.55426    0.17127    0.23120   1.00
H2       0.58878    0.13434    0.24114   1.00
H2       0.64798    0.15640    0.36110   1.00
H2       0.60565    0.18407    0.36932   1.00
H2       0.60965    0.13665    0.38930   1.00
H2       0.60584    0.08162    0.29356   1.00
H2       0.64788    0.09745    0.31821   1.00
H2       0.60915    0.07665    0.34496   1.00
H2       0.46344    0.12994    0.35311   1.00
H2       0.47619    0.10737    0.39774   1.00
H2       0.49166    0.15503    0.38784   1.00
H2       0.50956    0.05069    0.37099   1.00
H2       0.49378    0.06487    0.32407   1.00
H2       0.54343    0.05382    0.33280   1.00
C4       1.02084    0.24960    0.25302   1.00
C4       0.97912    0.25019    0.25259   1.00
C3       1.04364    0.26411    0.28442   1.00
C3       0.95616    0.26850    0.28182   1.00
C3       1.04123    0.23425    0.22009   1.00
C3       0.95886    0.23143    0.22140   1.00
C2       1.10512    0.24913    0.25083   1.00
C2       0.89488    0.25087    0.24917   1.00
C3       1.08462    0.26410    0.28329   1.00
C3       0.91519    0.26853    0.28038   1.00
C3       1.08258    0.23383    0.21983   1.00
C3       0.91762    0.23324    0.21961   1.00
H1       1.03115    0.27499    0.30910   1.00
H1       0.96852    0.28257    0.30490   1.00
C5       1.02020    0.21926    0.18773   1.00
C5       0.97980    0.21128    0.19197   1.00
H1       1.09955    0.27524    0.30675   1.00
H1       0.90010    0.28194    0.30251   1.00
H1       1.09680    0.22174    0.19649   1.00
H1       0.90368    0.22184    0.19582   1.00
O3       1.03961    0.21058    0.15360   1.00
O3       0.96099    0.18665    0.16615   1.00
Si1      1.04247    0.24322    0.11900   1.00
Si1      0.95279    0.14159    0.17918   1.00
C6       1.07538    0.21759    0.08877   1.00
C6       0.99598    0.24669    0.09724   1.00
C6       1.06253    0.28796    0.13480   1.00
C6       0.96693    0.12691    0.22658   1.00
C6       0.90198    0.13717    0.17440   1.00
C6       0.97477    0.11132    0.14393   1.00
C6       1.11194    0.19972    0.10968   1.00
H2       1.05791    0.19259    0.07950   1.00
C6       1.09147    0.23631    0.05017   1.00
H2       0.98358    0.21807    0.10361   1.00
C6       0.96634    0.27706    0.11408   1.00
C6       0.99336    0.25137    0.05188   1.00
H2       1.08831    0.27842    0.15098   1.00
C6       1.07772    0.31665    0.10259   1.00
C6       1.03849    0.31476    0.16323   1.00
C6       1.01071    0.13192    0.23844   1.00
C6       0.94225    0.14033    0.26264   1.00
H2       0.96212    0.09544    0.22559   1.00
H2       0.89051    0.15506    0.19811   1.00
C6       0.88378    0.15450    0.13623   1.00
C6       0.88393    0.09559    0.17972   1.00
H2       0.95375    0.11081    0.11999   1.00
C6       1.01336    0.12668    0.12537   1.00
C6       0.98244    0.06761    0.15487   1.00
H2       1.10346    0.18067    0.13379   1.00
H2       1.13090    0.22256    0.12135   1.00
H2       1.12917    0.18190    0.08960   1.00
H2       1.09608    0.21368    0.02815   1.00
H2       1.07178    0.25783    0.03771   1.00
H2       1.11964    0.25058    0.05449   1.00
H2       0.93672    0.27071    0.10402   1.00
H2       0.96532    0.27643    0.14580   1.00
H2       0.97352    0.30663    0.10466   1.00
H2       1.00862    0.22780    0.03685   1.00
H2       0.96308    0.25016    0.04182   1.00
H2       1.00550    0.27930    0.04247   1.00
H2       1.05514    0.32258    0.08089   1.00
H2       1.08708    0.34461    0.11485   1.00
H2       1.10332    0.30504    0.08794   1.00
H2       1.01902    0.33447    0.14752   1.00
H2       1.02068    0.29862    0.18375   1.00
H2       1.05828    0.33291    0.18049   1.00
H2       1.01688    0.16144    0.24848   1.00
H2       1.01809    0.11220    0.26242   1.00
H2       1.03048    0.12523    0.21451   1.00
H2       0.95125    0.12457    0.28891   1.00
H2       0.94574    0.17127    0.26880   1.00
H2       0.91122    0.13434    0.25886   1.00
H2       0.85202    0.15640    0.13890   1.00
H2       0.89435    0.18407    0.13068   1.00
H2       0.89035    0.13665    0.11070   1.00
H2       0.89416    0.08162    0.20644   1.00
H2       0.85212    0.09745    0.18179   1.00
H2       0.89085    0.07665    0.15504   1.00
H2       1.03656    0.12994    0.14689   1.00
H2       1.02381    0.10737    0.10226   1.00
H2       1.00834    0.15503    0.11216   1.00
H2       0.99044    0.05069    0.12901   1.00
H2       1.00622    0.06487    0.17593   1.00
H2       0.95657    0.05382    0.16720   1.00
C4       0.74698    -0.02084   0.24960   1.00
C4       0.74741    0.02088    0.25019   1.00
C3       0.71558    -0.04364   0.26411   1.00
C3       0.71818    0.04384    0.26850   1.00
C3       0.77991    -0.04123   0.23425   1.00
C3       0.77860    0.04114    0.23143   1.00
C2       0.74917    -0.10512   0.24913   1.00
C2       0.75083    0.10512    0.25087   1.00
C3       0.71671    -0.08462   0.26410   1.00
C3       0.71962    0.08481    0.26853   1.00
C3       0.78017    -0.08258   0.23383   1.00
C3       0.78039    0.08238    0.23324   1.00
H1       0.69090    -0.03115   0.27499   1.00
H1       0.69510    0.03148    0.28257   1.00
C5       0.81227    -0.02020   0.21926   1.00
C5       0.80803    0.02020    0.21128   1.00
H1       0.69325    -0.09955   0.27524   1.00
H1       0.69749    0.09990    0.28194   1.00
H1       0.80351    -0.09680   0.22174   1.00
H1       0.80418    0.09632    0.22184   1.00
O3       0.84640    -0.03961   0.21058   1.00
O3       0.83385    0.03901    0.18665   1.00
Si1      0.88100    -0.04247   0.24322   1.00
Si1      0.82082    0.04721    0.14159   1.00
C6       0.91123    -0.07538   0.21759   1.00
C6       0.90276    0.00402    0.24669   1.00
C6       0.86520    -0.06253   0.28796   1.00
C6       0.77342    0.03307    0.12691   1.00
C6       0.82560    0.09802    0.13717   1.00
C6       0.85607    0.02523    0.11132   1.00
C6       0.89032    -0.11194   0.19972   1.00
H2       0.92050    -0.05791   0.19259   1.00
C6       0.94983    -0.09147   0.23631   1.00
H2       0.89639    0.01642    0.21807   1.00
C6       0.88592    0.03366    0.27706   1.00
C6       0.94812    0.00664    0.25137   1.00
H2       0.84902    -0.08831   0.27842   1.00
C6       0.89741    -0.07772   0.31665   1.00
C6       0.83677    -0.03849   0.31476   1.00
C6       0.76156    -0.01071   0.13192   1.00
C6       0.73736    0.05775    0.14033   1.00
H2       0.77441    0.03788    0.09544   1.00
H2       0.80189    0.10949    0.15506   1.00
C6       0.86377    0.11622    0.15450   1.00
C6       0.82028    0.11607    0.09559   1.00
H2       0.88001    0.04625    0.11081   1.00
C6       0.87463    -0.01336   0.12668   1.00
C6       0.84513    0.01756    0.06761   1.00
H2       0.86621    -0.10346   0.18067   1.00
H2       0.87865    -0.13090   0.22256   1.00
H2       0.91040    -0.12917   0.18190   1.00
H2       0.97185    -0.09608   0.21368   1.00
H2       0.96229    -0.07178   0.25783   1.00
H2       0.94551    -0.11964   0.25058   1.00
H2       0.89598    0.06328    0.27071   1.00
H2       0.85420    0.03468    0.27643   1.00
H2       0.89534    0.02648    0.30663   1.00
H2       0.96315    -0.00862   0.22780   1.00
H2       0.95818    0.03692    0.25016   1.00
H2       0.95753    -0.00550   0.27930   1.00
H2       0.91911    -0.05514   0.32258   1.00
H2       0.88515    -0.08708   0.34461   1.00
H2       0.91206    -0.10332   0.30504   1.00
H2       0.85248    -0.01902   0.33447   1.00
H2       0.81625    -0.02068   0.29862   1.00
H2       0.81951    -0.05828   0.33291   1.00
H2       0.75152    -0.01688   0.16144   1.00
H2       0.73758    -0.01809   0.11220   1.00
H2       0.78549    -0.03048   0.12523   1.00
H2       0.71109    0.04875    0.12457   1.00
H2       0.73120    0.05426    0.17127   1.00
H2       0.74114    0.08878    0.13434   1.00
H2       0.86110    0.14798    0.15640   1.00
H2       0.86932    0.10565    0.18407   1.00
H2       0.88930    0.10965    0.13665   1.00
H2       0.79356    0.10584    0.08162   1.00
H2       0.81821    0.14788    0.09745   1.00
H2       0.84496    0.10915    0.07665   1.00
H2       0.85311    -0.03656   0.12994   1.00
H2       0.89774    -0.02381   0.10737   1.00
H2       0.88784    -0.00834   0.15503   1.00
H2       0.87099    0.00956    0.05069   1.00
H2       0.82407    -0.00622   0.06487   1.00
H2       0.83280    0.04343    0.05382   1.00
C4       0.74960    0.24698    -0.02084   1.00
C4       0.75019    0.24741    0.02088   1.00
C3       0.76411    0.21558    -0.04364   1.00
C3       0.76850    0.21818    0.04384   1.00
C3       0.73425    0.27991    -0.04123   1.00
C3       0.73143    0.27860    0.04114   1.00
C2       0.74913    0.24917    -0.10512   1.00
C2       0.75087    0.25083    0.10512   1.00
C3       0.76410    0.21671    -0.08462   1.00
C3       0.76853    0.21962    0.08481   1.00
C3       0.73383    0.28017    -0.08258   1.00
C3       0.73324    0.28039    0.08238   1.00
H1       0.77499    0.19090    -0.03115   1.00
H1       0.78257    0.19510    0.03148   1.00
C5       0.71926    0.31227    -0.02020   1.00
C5       0.71128    0.30803    0.02020   1.00
H1       0.77524    0.19325    -0.09955   1.00
H1       0.78194    0.19749    0.09990   1.00
H1       0.72174    0.30351    -0.09680   1.00
H1       0.72184    0.30418    0.09632   1.00
O3       0.71058    0.34640    -0.03961   1.00
O3       0.68665    0.33385    0.03901   1.00
Si1      0.74322    0.38100    -0.04247   1.00
Si1      0.64159    0.32082    0.04721   1.00
C6       0.71759    0.41123    -0.07538   1.00
C6       0.74669    0.40276    0.00402   1.00
C6       0.78796    0.36520    -0.06253   1.00
C6       0.62691    0.27342    0.03307   1.00
C6       0.63717    0.32560    0.09802   1.00
C6       0.61132    0.35607    0.02523   1.00
C6       0.69972    0.39032    -0.11194   1.00
H2       0.69259    0.42050    -0.05791   1.00
C6       0.73631    0.44983    -0.09147   1.00
H2       0.71807    0.39639    0.01642   1.00
C6       0.77706    0.38592    0.03366   1.00
C6       0.75137    0.44812    0.00664   1.00
H2       0.77842    0.34902    -0.08831   1.00
C6       0.81665    0.39741    -0.07772   1.00
C6       0.81476    0.33677    -0.03849   1.00
C6       0.63192    0.26156    -0.01071   1.00
C6       0.64033    0.23736    0.05775   1.00
H2       0.59544    0.27441    0.03788   1.00
H2       0.65506    0.30189    0.10949   1.00
C6       0.65450    0.36377    0.11622   1.00
C6       0.59559    0.32028    0.11607   1.00
H2       0.61081    0.38001    0.04625   1.00
C6       0.62668    0.37463    -0.01336   1.00
C6       0.56761    0.34513    0.01756   1.00
H2       0.68067    0.36621    -0.10346   1.00
H2       0.72256    0.37865    -0.13090   1.00
H2       0.68190    0.41040    -0.12917   1.00
H2       0.71368    0.47185    -0.09608   1.00
H2       0.75783    0.46229    -0.07178   1.00
H2       0.75058    0.44551    -0.11964   1.00
H2       0.77071    0.39598    0.06328   1.00
H2       0.77643    0.35420    0.03468   1.00
H2       0.80663    0.39534    0.02648   1.00
H2       0.72780    0.46315    -0.00862   1.00
H2       0.75016    0.45818    0.03692   1.00
H2       0.77930    0.45753    -0.00550   1.00
H2       0.82258    0.41911    -0.05514   1.00
H2       0.84461    0.38515    -0.08708   1.00
H2       0.80504    0.41206    -0.10332   1.00
H2       0.83447    0.35248    -0.01902   1.00
H2       0.79862    0.31625    -0.02068   1.00
H2       0.83291    0.31951    -0.05828   1.00
H2       0.66144    0.25152    -0.01688   1.00
H2       0.61220    0.23758    -0.01809   1.00
H2       0.62523    0.28549    -0.03048   1.00
H2       0.62457    0.21109    0.04875   1.00
H2       0.67127    0.23120    0.05426   1.00
H2       0.63434    0.24114    0.08878   1.00
H2       0.65640    0.36110    0.14798   1.00
H2       0.68407    0.36932    0.10565   1.00
H2       0.63665    0.38930    0.10965   1.00
H2       0.58162    0.29356    0.10584   1.00
H2       0.59745    0.31821    0.14788   1.00
H2       0.57665    0.34496    0.10915   1.00
H2       0.62994    0.35311    -0.03656   1.00
H2       0.60737    0.39774    -0.02381   1.00
H2       0.65503    0.38784    -0.00834   1.00
H2       0.55069    0.37099    0.00956   1.00
H2       0.56487    0.32407    -0.00622   1.00
H2       0.55382    0.33280    0.04343   1.00
