data_IRMOF10_SG202_Ligand8_label_w.

_audit_creation_method             'generated by an auxiliary program of Tobunporous'

_symmetry_space_group_name_H-M     'P 1'
_symmetry_Int_Tables_number        1
_symmetry_cell_setting             triclinic

_cell_length_a                    34.2800
_cell_length_b                    34.2800
_cell_length_c                    34.2800
_cell_angle_alpha                 90.0000
_cell_angle_beta                  90.0000
_cell_angle_gamma                 90.0000

loop_
_atom_site_label
_atom_site_fract_x
_atom_site_fract_y
_atom_site_fract_z
_atom_site_occupancy
O1       0.75000    0.75000    0.75000   1.00
Zn1      0.71720    0.78280    0.78280   1.00
Zn1      0.78280    0.71720    0.78280   1.00
Zn1      0.78280    0.78280    0.71720   1.00
Zn1      0.71720    0.71720    0.71720   1.00
O2       0.72650    0.77350    0.83820   1.00
O2       0.72650    0.83820    0.77350   1.00
O2       0.66180    0.77350    0.77350   1.00
O2       0.77350    0.72650    0.83820   1.00
O2       0.83820    0.72650    0.77350   1.00
O2       0.77350    0.66180    0.77350   1.00
O2       0.77350    0.83820    0.72650   1.00
O2       0.83820    0.77350    0.72650   1.00
O2       0.77350    0.77350    0.66180   1.00
O2       0.66180    0.72650    0.72650   1.00
O2       0.72650    0.66180    0.72650   1.00
O2       0.72650    0.72650    0.66180   1.00
C1       0.75000    0.75000    0.85520   1.00
C1       0.75000    0.85520    0.75000   1.00
C1       0.64480    0.75000    0.75000   1.00
C1       0.85520    0.75000    0.75000   1.00
C1       0.75000    0.64480    0.75000   1.00
C1       0.75000    0.75000    0.64480   1.00
O1       0.25000    0.25000    0.75000   1.00
Zn1      0.21720    0.28280    0.78280   1.00
Zn1      0.28280    0.21720    0.78280   1.00
Zn1      0.28280    0.28280    0.71720   1.00
Zn1      0.21720    0.21720    0.71720   1.00
O2       0.22650    0.27350    0.83820   1.00
O2       0.22650    0.33820    0.77350   1.00
O2       0.16180    0.27350    0.77350   1.00
O2       0.27350    0.22650    0.83820   1.00
O2       0.33820    0.22650    0.77350   1.00
O2       0.27350    0.16180    0.77350   1.00
O2       0.27350    0.33820    0.72650   1.00
O2       0.33820    0.27350    0.72650   1.00
O2       0.27350    0.27350    0.66180   1.00
O2       0.16180    0.22650    0.72650   1.00
O2       0.22650    0.16180    0.72650   1.00
O2       0.22650    0.22650    0.66180   1.00
C1       0.25000    0.25000    0.85520   1.00
C1       0.25000    0.35520    0.75000   1.00
C1       0.14480    0.25000    0.75000   1.00
C1       0.35520    0.25000    0.75000   1.00
C1       0.25000    0.14480    0.75000   1.00
C1       0.25000    0.25000    0.64480   1.00
O1       0.25000    0.75000    0.25000   1.00
Zn1      0.21720    0.78280    0.28280   1.00
Zn1      0.28280    0.71720    0.28280   1.00
Zn1      0.28280    0.78280    0.21720   1.00
Zn1      0.21720    0.71720    0.21720   1.00
O2       0.22650    0.77350    0.33820   1.00
O2       0.22650    0.83820    0.27350   1.00
O2       0.16180    0.77350    0.27350   1.00
O2       0.27350    0.72650    0.33820   1.00
O2       0.33820    0.72650    0.27350   1.00
O2       0.27350    0.66180    0.27350   1.00
O2       0.27350    0.83820    0.22650   1.00
O2       0.33820    0.77350    0.22650   1.00
O2       0.27350    0.77350    0.16180   1.00
O2       0.16180    0.72650    0.22650   1.00
O2       0.22650    0.66180    0.22650   1.00
O2       0.22650    0.72650    0.16180   1.00
C1       0.25000    0.75000    0.35520   1.00
C1       0.25000    0.85520    0.25000   1.00
C1       0.14480    0.75000    0.25000   1.00
C1       0.35520    0.75000    0.25000   1.00
C1       0.25000    0.64480    0.25000   1.00
C1       0.25000    0.75000    0.14480   1.00
O1       0.75000    0.25000    0.25000   1.00
Zn1      0.71720    0.28280    0.28280   1.00
Zn1      0.78280    0.21720    0.28280   1.00
Zn1      0.78280    0.28280    0.21720   1.00
Zn1      0.71720    0.21720    0.21720   1.00
O2       0.72650    0.27350    0.33820   1.00
O2       0.72650    0.33820    0.27350   1.00
O2       0.66180    0.27350    0.27350   1.00
O2       0.77350    0.22650    0.33820   1.00
O2       0.83820    0.22650    0.27350   1.00
O2       0.77350    0.16180    0.27350   1.00
O2       0.77350    0.33820    0.22650   1.00
O2       0.83820    0.27350    0.22650   1.00
O2       0.77350    0.27350    0.16180   1.00
O2       0.66180    0.22650    0.22650   1.00
O2       0.72650    0.16180    0.22650   1.00
O2       0.72650    0.22650    0.16180   1.00
C1       0.75000    0.25000    0.35520   1.00
C1       0.75000    0.35520    0.25000   1.00
C1       0.64480    0.25000    0.25000   1.00
C1       0.85520    0.25000    0.25000   1.00
C1       0.75000    0.14480    0.25000   1.00
C1       0.75000    0.25000    0.14480   1.00
O1       0.25000    0.25000    0.25000   1.00
Zn1      0.28280    0.21720    0.21720   1.00
Zn1      0.21720    0.28280    0.21720   1.00
Zn1      0.21720    0.21720    0.28280   1.00
Zn1      0.28280    0.28280    0.28280   1.00
O2       0.27350    0.22650    0.16180   1.00
O2       0.27350    0.16180    0.22650   1.00
O2       0.33820    0.22650    0.22650   1.00
O2       0.22650    0.27350    0.16180   1.00
O2       0.16180    0.27350    0.22650   1.00
O2       0.22650    0.33820    0.22650   1.00
O2       0.22650    0.16180    0.27350   1.00
O2       0.16180    0.22650    0.27350   1.00
O2       0.22650    0.22650    0.33820   1.00
O2       0.33820    0.27350    0.27350   1.00
O2       0.27350    0.33820    0.27350   1.00
O2       0.27350    0.27350    0.33820   1.00
C1       0.25000    0.25000    0.14480   1.00
C1       0.25000    0.14480    0.25000   1.00
C1       0.35520    0.25000    0.25000   1.00
C1       0.14480    0.25000    0.25000   1.00
C1       0.25000    0.35520    0.25000   1.00
C1       0.25000    0.25000    0.35520   1.00
O1       0.75000    0.75000    0.25000   1.00
Zn1      0.78280    0.71720    0.21720   1.00
Zn1      0.71720    0.78280    0.21720   1.00
Zn1      0.71720    0.71720    0.28280   1.00
Zn1      0.78280    0.78280    0.28280   1.00
O2       0.77350    0.72650    0.16180   1.00
O2       0.77350    0.66180    0.22650   1.00
O2       0.83820    0.72650    0.22650   1.00
O2       0.72650    0.77350    0.16180   1.00
O2       0.66180    0.77350    0.22650   1.00
O2       0.72650    0.83820    0.22650   1.00
O2       0.72650    0.66180    0.27350   1.00
O2       0.66180    0.72650    0.27350   1.00
O2       0.72650    0.72650    0.33820   1.00
O2       0.83820    0.77350    0.27350   1.00
O2       0.77350    0.83820    0.27350   1.00
O2       0.77350    0.77350    0.33820   1.00
C1       0.75000    0.75000    0.14480   1.00
C1       0.75000    0.64480    0.25000   1.00
C1       0.85520    0.75000    0.25000   1.00
C1       0.64480    0.75000    0.25000   1.00
C1       0.75000    0.85520    0.25000   1.00
C1       0.75000    0.75000    0.35520   1.00
O1       0.75000    0.25000    0.75000   1.00
Zn1      0.78280    0.21720    0.71720   1.00
Zn1      0.71720    0.28280    0.71720   1.00
Zn1      0.71720    0.21720    0.78280   1.00
Zn1      0.78280    0.28280    0.78280   1.00
O2       0.77350    0.22650    0.66180   1.00
O2       0.77350    0.16180    0.72650   1.00
O2       0.83820    0.22650    0.72650   1.00
O2       0.72650    0.27350    0.66180   1.00
O2       0.66180    0.27350    0.72650   1.00
O2       0.72650    0.33820    0.72650   1.00
O2       0.72650    0.16180    0.77350   1.00
O2       0.66180    0.22650    0.77350   1.00
O2       0.72650    0.22650    0.83820   1.00
O2       0.83820    0.27350    0.77350   1.00
O2       0.77350    0.33820    0.77350   1.00
O2       0.77350    0.27350    0.83820   1.00
C1       0.75000    0.25000    0.64480   1.00
C1       0.75000    0.14480    0.75000   1.00
C1       0.85520    0.25000    0.75000   1.00
C1       0.64480    0.25000    0.75000   1.00
C1       0.75000    0.35520    0.75000   1.00
C1       0.75000    0.25000    0.85520   1.00
O1       0.25000    0.75000    0.75000   1.00
Zn1      0.28280    0.71720    0.71720   1.00
Zn1      0.21720    0.78280    0.71720   1.00
Zn1      0.21720    0.71720    0.78280   1.00
Zn1      0.28280    0.78280    0.78280   1.00
O2       0.27350    0.72650    0.66180   1.00
O2       0.27350    0.66180    0.72650   1.00
O2       0.33820    0.72650    0.72650   1.00
O2       0.22650    0.77350    0.66180   1.00
O2       0.16180    0.77350    0.72650   1.00
O2       0.22650    0.83820    0.72650   1.00
O2       0.22650    0.66180    0.77350   1.00
O2       0.16180    0.72650    0.77350   1.00
O2       0.22650    0.72650    0.83820   1.00
O2       0.33820    0.77350    0.77350   1.00
O2       0.27350    0.83820    0.77350   1.00
O2       0.27350    0.77350    0.83820   1.00
C1       0.25000    0.75000    0.64480   1.00
C1       0.25000    0.64480    0.75000   1.00
C1       0.35520    0.75000    0.75000   1.00
C1       0.14480    0.75000    0.75000   1.00
C1       0.25000    0.85520    0.75000   1.00
C1       0.25000    0.75000    0.85520   1.00
C4       0.74991    0.75003    0.97915   1.00
C4       0.75009    0.74997    1.02085   1.00
C3       0.72011    0.73207    0.95708   1.00
C3       0.73863    0.78326    1.04225   1.00
C3       0.78020    0.76850    0.95816   1.00
C3a      0.76131    0.71624    1.04263   1.00
C2       0.75143    0.75048    0.89483   1.00
C2       0.74854    0.74983    1.10517   1.00
C3       0.72093    0.73231    0.91566   1.00
C3       0.73788    0.78312    1.08359   1.00
C3       0.78102    0.76856    0.91680   1.00
C3       0.76024    0.71667    1.08415   1.00
H1       0.69616    0.71778    0.97192   1.00
H1       0.72993    0.80945    1.02685   1.00
H1       0.69764    0.71819    0.89968   1.00
H1       0.72881    0.80920    1.09895   1.00
H1       0.80503    0.78256    0.90179   1.00
H1       0.76892    0.69103    1.10043   1.00
C5       0.77538    0.67957    1.02239   1.00
H1       0.80392    0.78207    0.97401   1.00
H2       0.77902    0.65526    1.04354   1.00
H2       0.75300    0.66987    1.00103   1.00
N1       0.81276    0.68645    1.00292   1.00
C6       0.84612    0.69808    1.02012   1.00
C6       0.82016    0.68195    0.96460   1.00
C6       0.87512    0.70140    0.99243   1.00
C6       0.85860    0.69116    0.95711   1.00
H3       0.84924    0.70407    1.05099   1.00
H3       0.79882    0.67297    0.94309   1.00
H3       0.90498    0.71027    0.99741   1.00
H3       0.87295    0.69051    0.92903   1.00
C4       0.75003    0.97915    0.74991   1.00
C4       0.74997    1.02085    0.75009   1.00
C3       0.73207    0.95708    0.72011   1.00
C3       0.78326    1.04225    0.73863   1.00
C3       0.76850    0.95816    0.78020   1.00
C3a      0.71624    1.04263    0.76131   1.00
C2       0.75048    0.89483    0.75143   1.00
C2       0.74983    1.10517    0.74854   1.00
C3       0.73231    0.91566    0.72093   1.00
C3       0.78312    1.08359    0.73788   1.00
C3       0.76856    0.91680    0.78102   1.00
C3       0.71667    1.08415    0.76024   1.00
H1       0.71778    0.97192    0.69616   1.00
H1       0.80945    1.02685    0.72993   1.00
H1       0.71819    0.89968    0.69764   1.00
H1       0.80920    1.09895    0.72881   1.00
H1       0.78256    0.90179    0.80503   1.00
H1       0.69103    1.10043    0.76892   1.00
C5       0.67957    1.02239    0.77538   1.00
H1       0.78207    0.97401    0.80392   1.00
H2       0.65526    1.04354    0.77902   1.00
H2       0.66987    1.00103    0.75300   1.00
N1       0.68645    1.00292    0.81276   1.00
C6       0.69808    1.02012    0.84612   1.00
C6       0.68195    0.96460    0.82016   1.00
C6       0.70140    0.99243    0.87512   1.00
C6       0.69116    0.95711    0.85860   1.00
H3       0.70407    1.05099    0.84924   1.00
H3       0.67297    0.94309    0.79882   1.00
H3       0.71027    0.99741    0.90498   1.00
H3       0.69051    0.92903    0.87295   1.00
C4       0.52085    0.74991    0.74997   1.00
C4       0.47915    0.75009    0.75003   1.00
C3       0.54292    0.72011    0.76793   1.00
C3       0.45775    0.73863    0.71674   1.00
C3       0.54184    0.78020    0.73150   1.00
C3a      0.45737    0.76131    0.78376   1.00
C2       0.60517    0.75143    0.74952   1.00
C2       0.39483    0.74854    0.75017   1.00
C3       0.58434    0.72093    0.76769   1.00
C3       0.41641    0.73788    0.71688   1.00
C3       0.58320    0.78102    0.73144   1.00
C3       0.41585    0.76024    0.78333   1.00
H1       0.52808    0.69616    0.78222   1.00
H1       0.47315    0.72993    0.69055   1.00
H1       0.60032    0.69764    0.78181   1.00
H1       0.40105    0.72881    0.69080   1.00
H1       0.59821    0.80503    0.71744   1.00
H1       0.39957    0.76892    0.80897   1.00
C5       0.47761    0.77538    0.82043   1.00
H1       0.52599    0.80392    0.71793   1.00
H2       0.45646    0.77902    0.84474   1.00
H2       0.49897    0.75300    0.83013   1.00
N1       0.49708    0.81276    0.81355   1.00
C6       0.47988    0.84612    0.80192   1.00
C6       0.53540    0.82016    0.81805   1.00
C6       0.50757    0.87512    0.79860   1.00
C6       0.54289    0.85860    0.80884   1.00
H3       0.44901    0.84924    0.79593   1.00
H3       0.55691    0.79882    0.82703   1.00
H3       0.50259    0.90498    0.78973   1.00
H3       0.57097    0.87295    0.80949   1.00
C4       0.97915    0.74991    0.75003   1.00
C4       1.02085    0.75009    0.74997   1.00
C3       0.95708    0.72011    0.73207   1.00
C3       1.04225    0.73863    0.78326   1.00
C3       0.95816    0.78020    0.76850   1.00
C3a      1.04263    0.76131    0.71624   1.00
C2       0.89483    0.75143    0.75048   1.00
C2       1.10517    0.74854    0.74983   1.00
C3       0.91566    0.72093    0.73231   1.00
C3       1.08359    0.73788    0.78312   1.00
C3       0.91680    0.78102    0.76856   1.00
C3       1.08415    0.76024    0.71667   1.00
H1       0.97192    0.69616    0.71778   1.00
H1       1.02685    0.72993    0.80945   1.00
H1       0.89968    0.69764    0.71819   1.00
H1       1.09895    0.72881    0.80920   1.00
H1       0.90179    0.80503    0.78256   1.00
H1       1.10043    0.76892    0.69103   1.00
C5       1.02239    0.77538    0.67957   1.00
H1       0.97401    0.80392    0.78207   1.00
H2       1.04354    0.77902    0.65526   1.00
H2       1.00103    0.75300    0.66987   1.00
N1       1.00292    0.81276    0.68645   1.00
C6       1.02012    0.84612    0.69808   1.00
C6       0.96460    0.82016    0.68195   1.00
C6       0.99243    0.87512    0.70140   1.00
C6       0.95711    0.85860    0.69116   1.00
H3       1.05099    0.84924    0.70407   1.00
H3       0.94309    0.79882    0.67297   1.00
H3       0.99741    0.90498    0.71027   1.00
H3       0.92903    0.87295    0.69051   1.00
C4       0.74997    0.52085    0.74991   1.00
C4       0.75003    0.47915    0.75009   1.00
C3       0.76793    0.54292    0.72011   1.00
C3       0.71674    0.45775    0.73863   1.00
C3       0.73150    0.54184    0.78020   1.00
C3a      0.78376    0.45737    0.76131   1.00
C2       0.74952    0.60517    0.75143   1.00
C2       0.75017    0.39483    0.74854   1.00
C3       0.76769    0.58434    0.72093   1.00
C3       0.71688    0.41641    0.73788   1.00
C3       0.73144    0.58320    0.78102   1.00
C3       0.78333    0.41585    0.76024   1.00
H1       0.78222    0.52808    0.69616   1.00
H1       0.69055    0.47315    0.72993   1.00
H1       0.78181    0.60032    0.69764   1.00
H1       0.69080    0.40105    0.72881   1.00
H1       0.71744    0.59821    0.80503   1.00
H1       0.80897    0.39957    0.76892   1.00
C5       0.82043    0.47761    0.77538   1.00
H1       0.71793    0.52599    0.80392   1.00
H2       0.84474    0.45646    0.77902   1.00
H2       0.83013    0.49897    0.75300   1.00
N1       0.81355    0.49708    0.81276   1.00
C6       0.80192    0.47988    0.84612   1.00
C6       0.81805    0.53540    0.82016   1.00
C6       0.79860    0.50757    0.87512   1.00
C6       0.80884    0.54289    0.85860   1.00
H3       0.79593    0.44901    0.84924   1.00
H3       0.82703    0.55691    0.79882   1.00
H3       0.78973    0.50259    0.90498   1.00
H3       0.80949    0.57097    0.87295   1.00
C4       0.74991    0.74997    0.52085   1.00
C4       0.75009    0.75003    0.47915   1.00
C3       0.72011    0.76793    0.54292   1.00
C3       0.73863    0.71674    0.45775   1.00
C3       0.78020    0.73150    0.54184   1.00
C3a      0.76131    0.78376    0.45737   1.00
C2       0.75143    0.74952    0.60517   1.00
C2       0.74854    0.75017    0.39483   1.00
C3       0.72093    0.76769    0.58434   1.00
C3       0.73788    0.71688    0.41641   1.00
C3       0.78102    0.73144    0.58320   1.00
C3       0.76024    0.78333    0.41585   1.00
H1       0.69616    0.78222    0.52808   1.00
H1       0.72993    0.69055    0.47315   1.00
H1       0.69764    0.78181    0.60032   1.00
H1       0.72881    0.69080    0.40105   1.00
H1       0.80503    0.71744    0.59821   1.00
H1       0.76892    0.80897    0.39957   1.00
C5       0.77538    0.82043    0.47761   1.00
H1       0.80392    0.71793    0.52599   1.00
H2       0.77902    0.84474    0.45646   1.00
H2       0.75300    0.83013    0.49897   1.00
N1       0.81276    0.81355    0.49708   1.00
C6       0.84612    0.80192    0.47988   1.00
C6       0.82016    0.81805    0.53540   1.00
C6       0.87512    0.79860    0.50757   1.00
C6       0.85860    0.80884    0.54289   1.00
H3       0.84924    0.79593    0.44901   1.00
H3       0.79882    0.82703    0.55691   1.00
H3       0.90498    0.78973    0.50259   1.00
H3       0.87295    0.80949    0.57097   1.00
C4       0.24991    0.25003    0.97915   1.00
C4       0.25009    0.24997    1.02085   1.00
C3       0.22011    0.23207    0.95708   1.00
C3       0.23863    0.28326    1.04225   1.00
C3       0.28020    0.26850    0.95816   1.00
C3a      0.26131    0.21624    1.04263   1.00
C2       0.25143    0.25048    0.89483   1.00
C2       0.24854    0.24983    1.10517   1.00
C3       0.22093    0.23231    0.91566   1.00
C3       0.23788    0.28312    1.08359   1.00
C3       0.28102    0.26856    0.91680   1.00
C3       0.26024    0.21667    1.08415   1.00
H1       0.19616    0.21778    0.97192   1.00
H1       0.22993    0.30945    1.02685   1.00
H1       0.19764    0.21819    0.89968   1.00
H1       0.22881    0.30920    1.09895   1.00
H1       0.30503    0.28256    0.90179   1.00
H1       0.26892    0.19103    1.10043   1.00
C5       0.27538    0.17957    1.02239   1.00
H1       0.30392    0.28207    0.97401   1.00
H2       0.27902    0.15526    1.04354   1.00
H2       0.25300    0.16987    1.00103   1.00
N1       0.31276    0.18645    1.00292   1.00
C6       0.34612    0.19808    1.02012   1.00
C6       0.32016    0.18195    0.96460   1.00
C6       0.37512    0.20140    0.99243   1.00
C6       0.35860    0.19116    0.95711   1.00
H3       0.34924    0.20407    1.05099   1.00
H3       0.29882    0.17297    0.94309   1.00
H3       0.40498    0.21027    0.99741   1.00
H3       0.37295    0.19051    0.92903   1.00
C4       0.25003    0.47915    0.74991   1.00
C4       0.24997    0.52085    0.75009   1.00
C3       0.23207    0.45708    0.72011   1.00
C3       0.28326    0.54225    0.73863   1.00
C3       0.26850    0.45816    0.78020   1.00
C3a      0.21624    0.54263    0.76131   1.00
C2       0.25048    0.39483    0.75143   1.00
C2       0.24983    0.60517    0.74854   1.00
C3       0.23231    0.41566    0.72093   1.00
C3       0.28312    0.58359    0.73788   1.00
C3       0.26856    0.41680    0.78102   1.00
C3       0.21667    0.58415    0.76024   1.00
H1       0.21778    0.47192    0.69616   1.00
H1       0.30945    0.52685    0.72993   1.00
H1       0.21819    0.39968    0.69764   1.00
H1       0.30920    0.59895    0.72881   1.00
H1       0.28256    0.40179    0.80503   1.00
H1       0.19103    0.60043    0.76892   1.00
C5       0.17957    0.52239    0.77538   1.00
H1       0.28207    0.47401    0.80392   1.00
H2       0.15526    0.54354    0.77902   1.00
H2       0.16987    0.50103    0.75300   1.00
N1       0.18645    0.50292    0.81276   1.00
C6       0.19808    0.52012    0.84612   1.00
C6       0.18195    0.46460    0.82016   1.00
C6       0.20140    0.49243    0.87512   1.00
C6       0.19116    0.45711    0.85860   1.00
H3       0.20407    0.55099    0.84924   1.00
H3       0.17297    0.44309    0.79882   1.00
H3       0.21027    0.49741    0.90498   1.00
H3       0.19051    0.42903    0.87295   1.00
C4       0.02085    0.24991    0.74997   1.00
C4       -0.02085   0.25009    0.75003   1.00
C3       0.04292    0.22011    0.76793   1.00
C3       -0.04225   0.23863    0.71674   1.00
C3       0.04184    0.28020    0.73150   1.00
C3a      -0.04263   0.26131    0.78376   1.00
C2       0.10517    0.25143    0.74952   1.00
C2       -0.10517   0.24854    0.75017   1.00
C3       0.08434    0.22093    0.76769   1.00
C3       -0.08359   0.23788    0.71688   1.00
C3       0.08320    0.28102    0.73144   1.00
C3       -0.08415   0.26024    0.78333   1.00
H1       0.02808    0.19616    0.78222   1.00
H1       -0.02685   0.22993    0.69055   1.00
H1       0.10032    0.19764    0.78181   1.00
H1       -0.09895   0.22881    0.69080   1.00
H1       0.09821    0.30503    0.71744   1.00
H1       -0.10043   0.26892    0.80897   1.00
C5       -0.02239   0.27538    0.82043   1.00
H1       0.02599    0.30392    0.71793   1.00
H2       -0.04354   0.27902    0.84474   1.00
H2       -0.00103   0.25300    0.83013   1.00
N1       -0.00292   0.31276    0.81355   1.00
C6       -0.02012   0.34612    0.80192   1.00
C6       0.03540    0.32016    0.81805   1.00
C6       0.00757    0.37512    0.79860   1.00
C6       0.04289    0.35860    0.80884   1.00
H3       -0.05099   0.34924    0.79593   1.00
H3       0.05691    0.29882    0.82703   1.00
H3       0.00259    0.40498    0.78973   1.00
H3       0.07097    0.37295    0.80949   1.00
C4       0.47915    0.24991    0.75003   1.00
C4       0.52085    0.25009    0.74997   1.00
C3       0.45708    0.22011    0.73207   1.00
C3       0.54225    0.23863    0.78326   1.00
C3       0.45816    0.28020    0.76850   1.00
C3a      0.54263    0.26131    0.71624   1.00
C2       0.39483    0.25143    0.75048   1.00
C2       0.60517    0.24854    0.74983   1.00
C3       0.41566    0.22093    0.73231   1.00
C3       0.58359    0.23788    0.78312   1.00
C3       0.41680    0.28102    0.76856   1.00
C3       0.58415    0.26024    0.71667   1.00
H1       0.47192    0.19616    0.71778   1.00
H1       0.52685    0.22993    0.80945   1.00
H1       0.39968    0.19764    0.71819   1.00
H1       0.59895    0.22881    0.80920   1.00
H1       0.40179    0.30503    0.78256   1.00
H1       0.60043    0.26892    0.69103   1.00
C5       0.52239    0.27538    0.67957   1.00
H1       0.47401    0.30392    0.78207   1.00
H2       0.54354    0.27902    0.65526   1.00
H2       0.50103    0.25300    0.66987   1.00
N1       0.50292    0.31276    0.68645   1.00
C6       0.52012    0.34612    0.69808   1.00
C6       0.46460    0.32016    0.68195   1.00
C6       0.49243    0.37512    0.70140   1.00
C6       0.45711    0.35860    0.69116   1.00
H3       0.55099    0.34924    0.70407   1.00
H3       0.44309    0.29882    0.67297   1.00
H3       0.49741    0.40498    0.71027   1.00
H3       0.42903    0.37295    0.69051   1.00
C4       0.24997    0.02085    0.74991   1.00
C4       0.25003    -0.02085   0.75009   1.00
C3       0.26793    0.04292    0.72011   1.00
C3       0.21674    -0.04225   0.73863   1.00
C3       0.23150    0.04184    0.78020   1.00
C3a      0.28376    -0.04263   0.76131   1.00
C2       0.24952    0.10517    0.75143   1.00
C2       0.25017    -0.10517   0.74854   1.00
C3       0.26769    0.08434    0.72093   1.00
C3       0.21688    -0.08359   0.73788   1.00
C3       0.23144    0.08320    0.78102   1.00
C3       0.28333    -0.08415   0.76024   1.00
H1       0.28222    0.02808    0.69616   1.00
H1       0.19055    -0.02685   0.72993   1.00
H1       0.28181    0.10032    0.69764   1.00
H1       0.19080    -0.09895   0.72881   1.00
H1       0.21744    0.09821    0.80503   1.00
H1       0.30897    -0.10043   0.76892   1.00
C5       0.32043    -0.02239   0.77538   1.00
H1       0.21793    0.02599    0.80392   1.00
H2       0.34474    -0.04354   0.77902   1.00
H2       0.33013    -0.00103   0.75300   1.00
N1       0.31355    -0.00292   0.81276   1.00
C6       0.30192    -0.02012   0.84612   1.00
C6       0.31805    0.03540    0.82016   1.00
C6       0.29860    0.00757    0.87512   1.00
C6       0.30884    0.04289    0.85860   1.00
H3       0.29593    -0.05099   0.84924   1.00
H3       0.32703    0.05691    0.79882   1.00
H3       0.28973    0.00259    0.90498   1.00
H3       0.30949    0.07097    0.87295   1.00
C4       0.24991    0.24997    0.52085   1.00
C4       0.25009    0.25003    0.47915   1.00
C3       0.22011    0.26793    0.54292   1.00
C3       0.23863    0.21674    0.45775   1.00
C3       0.28020    0.23150    0.54184   1.00
C3a      0.26131    0.28376    0.45737   1.00
C2       0.25143    0.24952    0.60517   1.00
C2       0.24854    0.25017    0.39483   1.00
C3       0.22093    0.26769    0.58434   1.00
C3       0.23788    0.21688    0.41641   1.00
C3       0.28102    0.23144    0.58320   1.00
C3       0.26024    0.28333    0.41585   1.00
H1       0.19616    0.28222    0.52808   1.00
H1       0.22993    0.19055    0.47315   1.00
H1       0.19764    0.28181    0.60032   1.00
H1       0.22881    0.19080    0.40105   1.00
H1       0.30503    0.21744    0.59821   1.00
H1       0.26892    0.30897    0.39957   1.00
C5       0.27538    0.32043    0.47761   1.00
H1       0.30392    0.21793    0.52599   1.00
H2       0.27902    0.34474    0.45646   1.00
H2       0.25300    0.33013    0.49897   1.00
N1       0.31276    0.31355    0.49708   1.00
C6       0.34612    0.30192    0.47988   1.00
C6       0.32016    0.31805    0.53540   1.00
C6       0.37512    0.29860    0.50757   1.00
C6       0.35860    0.30884    0.54289   1.00
H3       0.34924    0.29593    0.44901   1.00
H3       0.29882    0.32703    0.55691   1.00
H3       0.40498    0.28973    0.50259   1.00
H3       0.37295    0.30949    0.57097   1.00
C4       0.24991    0.75003    0.47915   1.00
C4       0.25009    0.74997    0.52085   1.00
C3       0.22011    0.73207    0.45708   1.00
C3       0.23863    0.78326    0.54225   1.00
C3       0.28020    0.76850    0.45816   1.00
C3a      0.26131    0.71624    0.54263   1.00
C2       0.25143    0.75048    0.39483   1.00
C2       0.24854    0.74983    0.60517   1.00
C3       0.22093    0.73231    0.41566   1.00
C3       0.23788    0.78312    0.58359   1.00
C3       0.28102    0.76856    0.41680   1.00
C3       0.26024    0.71667    0.58415   1.00
H1       0.19616    0.71778    0.47192   1.00
H1       0.22993    0.80945    0.52685   1.00
H1       0.19764    0.71819    0.39968   1.00
H1       0.22881    0.80920    0.59895   1.00
H1       0.30503    0.78256    0.40179   1.00
H1       0.26892    0.69103    0.60043   1.00
C5       0.27538    0.67957    0.52239   1.00
H1       0.30392    0.78207    0.47401   1.00
H2       0.27902    0.65526    0.54354   1.00
H2       0.25300    0.66987    0.50103   1.00
N1       0.31276    0.68645    0.50292   1.00
C6       0.34612    0.69808    0.52012   1.00
C6       0.32016    0.68195    0.46460   1.00
C6       0.37512    0.70140    0.49243   1.00
C6       0.35860    0.69116    0.45711   1.00
H3       0.34924    0.70407    0.55099   1.00
H3       0.29882    0.67297    0.44309   1.00
H3       0.40498    0.71027    0.49741   1.00
H3       0.37295    0.69051    0.42903   1.00
C4       0.25003    0.97915    0.24991   1.00
C4       0.24997    1.02085    0.25009   1.00
C3       0.23207    0.95708    0.22011   1.00
C3       0.28326    1.04225    0.23863   1.00
C3       0.26850    0.95816    0.28020   1.00
C3a      0.21624    1.04263    0.26131   1.00
C2       0.25048    0.89483    0.25143   1.00
C2       0.24983    1.10517    0.24854   1.00
C3       0.23231    0.91566    0.22093   1.00
C3       0.28312    1.08359    0.23788   1.00
C3       0.26856    0.91680    0.28102   1.00
C3       0.21667    1.08415    0.26024   1.00
H1       0.21778    0.97192    0.19616   1.00
H1       0.30945    1.02685    0.22993   1.00
H1       0.21819    0.89968    0.19764   1.00
H1       0.30920    1.09895    0.22881   1.00
H1       0.28256    0.90179    0.30503   1.00
H1       0.19103    1.10043    0.26892   1.00
C5       0.17957    1.02239    0.27538   1.00
H1       0.28207    0.97401    0.30392   1.00
H2       0.15526    1.04354    0.27902   1.00
H2       0.16987    1.00103    0.25300   1.00
N1       0.18645    1.00292    0.31276   1.00
C6       0.19808    1.02012    0.34612   1.00
C6       0.18195    0.96460    0.32016   1.00
C6       0.20140    0.99243    0.37512   1.00
C6       0.19116    0.95711    0.35860   1.00
H3       0.20407    1.05099    0.34924   1.00
H3       0.17297    0.94309    0.29882   1.00
H3       0.21027    0.99741    0.40498   1.00
H3       0.19051    0.92903    0.37295   1.00
C4       0.02085    0.74991    0.24997   1.00
C4       -0.02085   0.75009    0.25003   1.00
C3       0.04292    0.72011    0.26793   1.00
C3       -0.04225   0.73863    0.21674   1.00
C3       0.04184    0.78020    0.23150   1.00
C3a      -0.04263   0.76131    0.28376   1.00
C2       0.10517    0.75143    0.24952   1.00
C2       -0.10517   0.74854    0.25017   1.00
C3       0.08434    0.72093    0.26769   1.00
C3       -0.08359   0.73788    0.21688   1.00
C3       0.08320    0.78102    0.23144   1.00
C3       -0.08415   0.76024    0.28333   1.00
H1       0.02808    0.69616    0.28222   1.00
H1       -0.02685   0.72993    0.19055   1.00
H1       0.10032    0.69764    0.28181   1.00
H1       -0.09895   0.72881    0.19080   1.00
H1       0.09821    0.80503    0.21744   1.00
H1       -0.10043   0.76892    0.30897   1.00
C5       -0.02239   0.77538    0.32043   1.00
H1       0.02599    0.80392    0.21793   1.00
H2       -0.04354   0.77902    0.34474   1.00
H2       -0.00103   0.75300    0.33013   1.00
N1       -0.00292   0.81276    0.31355   1.00
C6       -0.02012   0.84612    0.30192   1.00
C6       0.03540    0.82016    0.31805   1.00
C6       0.00757    0.87512    0.29860   1.00
C6       0.04289    0.85860    0.30884   1.00
H3       -0.05099   0.84924    0.29593   1.00
H3       0.05691    0.79882    0.32703   1.00
H3       0.00259    0.90498    0.28973   1.00
H3       0.07097    0.87295    0.30949   1.00
C4       0.47915    0.74991    0.25003   1.00
C4       0.52085    0.75009    0.24997   1.00
C3       0.45708    0.72011    0.23207   1.00
C3       0.54225    0.73863    0.28326   1.00
C3       0.45816    0.78020    0.26850   1.00
C3a      0.54263    0.76131    0.21624   1.00
C2       0.39483    0.75143    0.25048   1.00
C2       0.60517    0.74854    0.24983   1.00
C3       0.41566    0.72093    0.23231   1.00
C3       0.58359    0.73788    0.28312   1.00
C3       0.41680    0.78102    0.26856   1.00
C3       0.58415    0.76024    0.21667   1.00
H1       0.47192    0.69616    0.21778   1.00
H1       0.52685    0.72993    0.30945   1.00
H1       0.39968    0.69764    0.21819   1.00
H1       0.59895    0.72881    0.30920   1.00
H1       0.40179    0.80503    0.28256   1.00
H1       0.60043    0.76892    0.19103   1.00
C5       0.52239    0.77538    0.17957   1.00
H1       0.47401    0.80392    0.28207   1.00
H2       0.54354    0.77902    0.15526   1.00
H2       0.50103    0.75300    0.16987   1.00
N1       0.50292    0.81276    0.18645   1.00
C6       0.52012    0.84612    0.19808   1.00
C6       0.46460    0.82016    0.18195   1.00
C6       0.49243    0.87512    0.20140   1.00
C6       0.45711    0.85860    0.19116   1.00
H3       0.55099    0.84924    0.20407   1.00
H3       0.44309    0.79882    0.17297   1.00
H3       0.49741    0.90498    0.21027   1.00
H3       0.42903    0.87295    0.19051   1.00
C4       0.24997    0.52085    0.24991   1.00
C4       0.25003    0.47915    0.25009   1.00
C3       0.26793    0.54292    0.22011   1.00
C3       0.21674    0.45775    0.23863   1.00
C3       0.23150    0.54184    0.28020   1.00
C3a      0.28376    0.45737    0.26131   1.00
C2       0.24952    0.60517    0.25143   1.00
C2       0.25017    0.39483    0.24854   1.00
C3       0.26769    0.58434    0.22093   1.00
C3       0.21688    0.41641    0.23788   1.00
C3       0.23144    0.58320    0.28102   1.00
C3       0.28333    0.41585    0.26024   1.00
H1       0.28222    0.52808    0.19616   1.00
H1       0.19055    0.47315    0.22993   1.00
H1       0.28181    0.60032    0.19764   1.00
H1       0.19080    0.40105    0.22881   1.00
H1       0.21744    0.59821    0.30503   1.00
H1       0.30897    0.39957    0.26892   1.00
C5       0.32043    0.47761    0.27538   1.00
H1       0.21793    0.52599    0.30392   1.00
H2       0.34474    0.45646    0.27902   1.00
H2       0.33013    0.49897    0.25300   1.00
N1       0.31355    0.49708    0.31276   1.00
C6       0.30192    0.47988    0.34612   1.00
C6       0.31805    0.53540    0.32016   1.00
C6       0.29860    0.50757    0.37512   1.00
C6       0.30884    0.54289    0.35860   1.00
H3       0.29593    0.44901    0.34924   1.00
H3       0.32703    0.55691    0.29882   1.00
H3       0.28973    0.50259    0.40498   1.00
H3       0.30949    0.57097    0.37295   1.00
C4       0.24991    0.74997    0.02085   1.00
C4       0.25009    0.75003    -0.02085   1.00
C3       0.22011    0.76793    0.04292   1.00
C3       0.23863    0.71674    -0.04225   1.00
C3       0.28020    0.73150    0.04184   1.00
C3a      0.26131    0.78376    -0.04263   1.00
C2       0.25143    0.74952    0.10517   1.00
C2       0.24854    0.75017    -0.10517   1.00
C3       0.22093    0.76769    0.08434   1.00
C3       0.23788    0.71688    -0.08359   1.00
C3       0.28102    0.73144    0.08320   1.00
C3       0.26024    0.78333    -0.08415   1.00
H1       0.19616    0.78222    0.02808   1.00
H1       0.22993    0.69055    -0.02685   1.00
H1       0.19764    0.78181    0.10032   1.00
H1       0.22881    0.69080    -0.09895   1.00
H1       0.30503    0.71744    0.09821   1.00
H1       0.26892    0.80897    -0.10043   1.00
C5       0.27538    0.82043    -0.02239   1.00
H1       0.30392    0.71793    0.02599   1.00
H2       0.27902    0.84474    -0.04354   1.00
H2       0.25300    0.83013    -0.00103   1.00
N1       0.31276    0.81355    -0.00292   1.00
C6       0.34612    0.80192    -0.02012   1.00
C6       0.32016    0.81805    0.03540   1.00
C6       0.37512    0.79860    0.00757   1.00
C6       0.35860    0.80884    0.04289   1.00
H3       0.34924    0.79593    -0.05099   1.00
H3       0.29882    0.82703    0.05691   1.00
H3       0.40498    0.78973    0.00259   1.00
H3       0.37295    0.80949    0.07097   1.00
C4       0.74991    0.25003    0.47915   1.00
C4       0.75009    0.24997    0.52085   1.00
C3       0.72011    0.23207    0.45708   1.00
C3       0.73863    0.28326    0.54225   1.00
C3       0.78020    0.26850    0.45816   1.00
C3a      0.76131    0.21624    0.54263   1.00
C2       0.75143    0.25048    0.39483   1.00
C2       0.74854    0.24983    0.60517   1.00
C3       0.72093    0.23231    0.41566   1.00
C3       0.73788    0.28312    0.58359   1.00
C3       0.78102    0.26856    0.41680   1.00
C3       0.76024    0.21667    0.58415   1.00
H1       0.69616    0.21778    0.47192   1.00
H1       0.72993    0.30945    0.52685   1.00
H1       0.69764    0.21819    0.39968   1.00
H1       0.72881    0.30920    0.59895   1.00
H1       0.80503    0.28256    0.40179   1.00
H1       0.76892    0.19103    0.60043   1.00
C5       0.77538    0.17957    0.52239   1.00
H1       0.80392    0.28207    0.47401   1.00
H2       0.77902    0.15526    0.54354   1.00
H2       0.75300    0.16987    0.50103   1.00
N1       0.81276    0.18645    0.50292   1.00
C6       0.84612    0.19808    0.52012   1.00
C6       0.82016    0.18195    0.46460   1.00
C6       0.87512    0.20140    0.49243   1.00
C6       0.85860    0.19116    0.45711   1.00
H3       0.84924    0.20407    0.55099   1.00
H3       0.79882    0.17297    0.44309   1.00
H3       0.90498    0.21027    0.49741   1.00
H3       0.87295    0.19051    0.42903   1.00
C4       0.75003    0.47915    0.24991   1.00
C4       0.74997    0.52085    0.25009   1.00
C3       0.73207    0.45708    0.22011   1.00
C3       0.78326    0.54225    0.23863   1.00
C3       0.76850    0.45816    0.28020   1.00
C3a      0.71624    0.54263    0.26131   1.00
C2       0.75048    0.39483    0.25143   1.00
C2       0.74983    0.60517    0.24854   1.00
C3       0.73231    0.41566    0.22093   1.00
C3       0.78312    0.58359    0.23788   1.00
C3       0.76856    0.41680    0.28102   1.00
C3       0.71667    0.58415    0.26024   1.00
H1       0.71778    0.47192    0.19616   1.00
H1       0.80945    0.52685    0.22993   1.00
H1       0.71819    0.39968    0.19764   1.00
H1       0.80920    0.59895    0.22881   1.00
H1       0.78256    0.40179    0.30503   1.00
H1       0.69103    0.60043    0.26892   1.00
C5       0.67957    0.52239    0.27538   1.00
H1       0.78207    0.47401    0.30392   1.00
H2       0.65526    0.54354    0.27902   1.00
H2       0.66987    0.50103    0.25300   1.00
N1       0.68645    0.50292    0.31276   1.00
C6       0.69808    0.52012    0.34612   1.00
C6       0.68195    0.46460    0.32016   1.00
C6       0.70140    0.49243    0.37512   1.00
C6       0.69116    0.45711    0.35860   1.00
H3       0.70407    0.55099    0.34924   1.00
H3       0.67297    0.44309    0.29882   1.00
H3       0.71027    0.49741    0.40498   1.00
H3       0.69051    0.42903    0.37295   1.00
C4       0.52085    0.24991    0.24997   1.00
C4       0.47915    0.25009    0.25003   1.00
C3       0.54292    0.22011    0.26793   1.00
C3       0.45775    0.23863    0.21674   1.00
C3       0.54184    0.28020    0.23150   1.00
C3a      0.45737    0.26131    0.28376   1.00
C2       0.60517    0.25143    0.24952   1.00
C2       0.39483    0.24854    0.25017   1.00
C3       0.58434    0.22093    0.26769   1.00
C3       0.41641    0.23788    0.21688   1.00
C3       0.58320    0.28102    0.23144   1.00
C3       0.41585    0.26024    0.28333   1.00
H1       0.52808    0.19616    0.28222   1.00
H1       0.47315    0.22993    0.19055   1.00
H1       0.60032    0.19764    0.28181   1.00
H1       0.40105    0.22881    0.19080   1.00
H1       0.59821    0.30503    0.21744   1.00
H1       0.39957    0.26892    0.30897   1.00
C5       0.47761    0.27538    0.32043   1.00
H1       0.52599    0.30392    0.21793   1.00
H2       0.45646    0.27902    0.34474   1.00
H2       0.49897    0.25300    0.33013   1.00
N1       0.49708    0.31276    0.31355   1.00
C6       0.47988    0.34612    0.30192   1.00
C6       0.53540    0.32016    0.31805   1.00
C6       0.50757    0.37512    0.29860   1.00
C6       0.54289    0.35860    0.30884   1.00
H3       0.44901    0.34924    0.29593   1.00
H3       0.55691    0.29882    0.32703   1.00
H3       0.50259    0.40498    0.28973   1.00
H3       0.57097    0.37295    0.30949   1.00
C4       0.97915    0.24991    0.25003   1.00
C4       1.02085    0.25009    0.24997   1.00
C3       0.95708    0.22011    0.23207   1.00
C3       1.04225    0.23863    0.28326   1.00
C3       0.95816    0.28020    0.26850   1.00
C3a      1.04263    0.26131    0.21624   1.00
C2       0.89483    0.25143    0.25048   1.00
C2       1.10517    0.24854    0.24983   1.00
C3       0.91566    0.22093    0.23231   1.00
C3       1.08359    0.23788    0.28312   1.00
C3       0.91680    0.28102    0.26856   1.00
C3       1.08415    0.26024    0.21667   1.00
H1       0.97192    0.19616    0.21778   1.00
H1       1.02685    0.22993    0.30945   1.00
H1       0.89968    0.19764    0.21819   1.00
H1       1.09895    0.22881    0.30920   1.00
H1       0.90179    0.30503    0.28256   1.00
H1       1.10043    0.26892    0.19103   1.00
C5       1.02239    0.27538    0.17957   1.00
H1       0.97401    0.30392    0.28207   1.00
H2       1.04354    0.27902    0.15526   1.00
H2       1.00103    0.25300    0.16987   1.00
N1       1.00292    0.31276    0.18645   1.00
C6       1.02012    0.34612    0.19808   1.00
C6       0.96460    0.32016    0.18195   1.00
C6       0.99243    0.37512    0.20140   1.00
C6       0.95711    0.35860    0.19116   1.00
H3       1.05099    0.34924    0.20407   1.00
H3       0.94309    0.29882    0.17297   1.00
H3       0.99741    0.40498    0.21027   1.00
H3       0.92903    0.37295    0.19051   1.00
C4       0.74997    0.02085    0.24991   1.00
C4       0.75003    -0.02085   0.25009   1.00
C3       0.76793    0.04292    0.22011   1.00
C3       0.71674    -0.04225   0.23863   1.00
C3       0.73150    0.04184    0.28020   1.00
C3a      0.78376    -0.04263   0.26131   1.00
C2       0.74952    0.10517    0.25143   1.00
C2       0.75017    -0.10517   0.24854   1.00
C3       0.76769    0.08434    0.22093   1.00
C3       0.71688    -0.08359   0.23788   1.00
C3       0.73144    0.08320    0.28102   1.00
C3       0.78333    -0.08415   0.26024   1.00
H1       0.78222    0.02808    0.19616   1.00
H1       0.69055    -0.02685   0.22993   1.00
H1       0.78181    0.10032    0.19764   1.00
H1       0.69080    -0.09895   0.22881   1.00
H1       0.71744    0.09821    0.30503   1.00
H1       0.80897    -0.10043   0.26892   1.00
C5       0.82043    -0.02239   0.27538   1.00
H1       0.71793    0.02599    0.30392   1.00
H2       0.84474    -0.04354   0.27902   1.00
H2       0.83013    -0.00103   0.25300   1.00
N1       0.81355    -0.00292   0.31276   1.00
C6       0.80192    -0.02012   0.34612   1.00
C6       0.81805    0.03540    0.32016   1.00
C6       0.79860    0.00757    0.37512   1.00
C6       0.80884    0.04289    0.35860   1.00
H3       0.79593    -0.05099   0.34924   1.00
H3       0.82703    0.05691    0.29882   1.00
H3       0.78973    0.00259    0.40498   1.00
H3       0.80949    0.07097    0.37295   1.00
C4       0.74991    0.24997    0.02085   1.00
C4       0.75009    0.25003    -0.02085   1.00
C3       0.72011    0.26793    0.04292   1.00
C3       0.73863    0.21674    -0.04225   1.00
C3       0.78020    0.23150    0.04184   1.00
C3a      0.76131    0.28376    -0.04263   1.00
C2       0.75143    0.24952    0.10517   1.00
C2       0.74854    0.25017    -0.10517   1.00
C3       0.72093    0.26769    0.08434   1.00
C3       0.73788    0.21688    -0.08359   1.00
C3       0.78102    0.23144    0.08320   1.00
C3       0.76024    0.28333    -0.08415   1.00
H1       0.69616    0.28222    0.02808   1.00
H1       0.72993    0.19055    -0.02685   1.00
H1       0.69764    0.28181    0.10032   1.00
H1       0.72881    0.19080    -0.09895   1.00
H1       0.80503    0.21744    0.09821   1.00
H1       0.76892    0.30897    -0.10043   1.00
C5       0.77538    0.32043    -0.02239   1.00
H1       0.80392    0.21793    0.02599   1.00
H2       0.77902    0.34474    -0.04354   1.00
H2       0.75300    0.33013    -0.00103   1.00
N1       0.81276    0.31355    -0.00292   1.00
C6       0.84612    0.30192    -0.02012   1.00
C6       0.82016    0.31805    0.03540   1.00
C6       0.87512    0.29860    0.00757   1.00
C6       0.85860    0.30884    0.04289   1.00
H3       0.84924    0.29593    -0.05099   1.00
H3       0.79882    0.32703    0.05691   1.00
H3       0.90498    0.28973    0.00259   1.00
H3       0.87295    0.30949    0.07097   1.00
