data_IRMOF10_SG202_Ligand11_label_c.

_audit_creation_method             'generated by an auxiliary program of Tobunporous'

_symmetry_space_group_name_H-M     'P 1'
_symmetry_Int_Tables_number        1
_symmetry_cell_setting             triclinic

_cell_length_a                    34.2800
_cell_length_b                    34.2800
_cell_length_c                    34.2800
_cell_angle_alpha                 90.0000
_cell_angle_beta                  90.0000
_cell_angle_gamma                 90.0000

loop_
_atom_site_label
_atom_site_fract_x
_atom_site_fract_y
_atom_site_fract_z
_atom_site_occupancy
O1       0.75000    0.75000    0.75000   1.00
Zn1      0.71720    0.78280    0.78280   1.00
Zn1      0.78280    0.71720    0.78280   1.00
Zn1      0.78280    0.78280    0.71720   1.00
Zn1      0.71720    0.71720    0.71720   1.00
O2       0.72650    0.77350    0.83820   1.00
O2       0.72650    0.83820    0.77350   1.00
O2       0.66180    0.77350    0.77350   1.00
O2       0.77350    0.72650    0.83820   1.00
O2       0.83820    0.72650    0.77350   1.00
O2       0.77350    0.66180    0.77350   1.00
O2       0.77350    0.83820    0.72650   1.00
O2       0.83820    0.77350    0.72650   1.00
O2       0.77350    0.77350    0.66180   1.00
O2       0.66180    0.72650    0.72650   1.00
O2       0.72650    0.66180    0.72650   1.00
O2       0.72650    0.72650    0.66180   1.00
C1       0.75000    0.75000    0.85520   1.00
C1       0.75000    0.85520    0.75000   1.00
C1       0.64480    0.75000    0.75000   1.00
C1       0.85520    0.75000    0.75000   1.00
C1       0.75000    0.64480    0.75000   1.00
C1       0.75000    0.75000    0.64480   1.00
O1       0.25000    0.25000    0.75000   1.00
Zn1      0.21720    0.28280    0.78280   1.00
Zn1      0.28280    0.21720    0.78280   1.00
Zn1      0.28280    0.28280    0.71720   1.00
Zn1      0.21720    0.21720    0.71720   1.00
O2       0.22650    0.27350    0.83820   1.00
O2       0.22650    0.33820    0.77350   1.00
O2       0.16180    0.27350    0.77350   1.00
O2       0.27350    0.22650    0.83820   1.00
O2       0.33820    0.22650    0.77350   1.00
O2       0.27350    0.16180    0.77350   1.00
O2       0.27350    0.33820    0.72650   1.00
O2       0.33820    0.27350    0.72650   1.00
O2       0.27350    0.27350    0.66180   1.00
O2       0.16180    0.22650    0.72650   1.00
O2       0.22650    0.16180    0.72650   1.00
O2       0.22650    0.22650    0.66180   1.00
C1       0.25000    0.25000    0.85520   1.00
C1       0.25000    0.35520    0.75000   1.00
C1       0.14480    0.25000    0.75000   1.00
C1       0.35520    0.25000    0.75000   1.00
C1       0.25000    0.14480    0.75000   1.00
C1       0.25000    0.25000    0.64480   1.00
O1       0.25000    0.75000    0.25000   1.00
Zn1      0.21720    0.78280    0.28280   1.00
Zn1      0.28280    0.71720    0.28280   1.00
Zn1      0.28280    0.78280    0.21720   1.00
Zn1      0.21720    0.71720    0.21720   1.00
O2       0.22650    0.77350    0.33820   1.00
O2       0.22650    0.83820    0.27350   1.00
O2       0.16180    0.77350    0.27350   1.00
O2       0.27350    0.72650    0.33820   1.00
O2       0.33820    0.72650    0.27350   1.00
O2       0.27350    0.66180    0.27350   1.00
O2       0.27350    0.83820    0.22650   1.00
O2       0.33820    0.77350    0.22650   1.00
O2       0.27350    0.77350    0.16180   1.00
O2       0.16180    0.72650    0.22650   1.00
O2       0.22650    0.66180    0.22650   1.00
O2       0.22650    0.72650    0.16180   1.00
C1       0.25000    0.75000    0.35520   1.00
C1       0.25000    0.85520    0.25000   1.00
C1       0.14480    0.75000    0.25000   1.00
C1       0.35520    0.75000    0.25000   1.00
C1       0.25000    0.64480    0.25000   1.00
C1       0.25000    0.75000    0.14480   1.00
O1       0.75000    0.25000    0.25000   1.00
Zn1      0.71720    0.28280    0.28280   1.00
Zn1      0.78280    0.21720    0.28280   1.00
Zn1      0.78280    0.28280    0.21720   1.00
Zn1      0.71720    0.21720    0.21720   1.00
O2       0.72650    0.27350    0.33820   1.00
O2       0.72650    0.33820    0.27350   1.00
O2       0.66180    0.27350    0.27350   1.00
O2       0.77350    0.22650    0.33820   1.00
O2       0.83820    0.22650    0.27350   1.00
O2       0.77350    0.16180    0.27350   1.00
O2       0.77350    0.33820    0.22650   1.00
O2       0.83820    0.27350    0.22650   1.00
O2       0.77350    0.27350    0.16180   1.00
O2       0.66180    0.22650    0.22650   1.00
O2       0.72650    0.16180    0.22650   1.00
O2       0.72650    0.22650    0.16180   1.00
C1       0.75000    0.25000    0.35520   1.00
C1       0.75000    0.35520    0.25000   1.00
C1       0.64480    0.25000    0.25000   1.00
C1       0.85520    0.25000    0.25000   1.00
C1       0.75000    0.14480    0.25000   1.00
C1       0.75000    0.25000    0.14480   1.00
O1       0.25000    0.25000    0.25000   1.00
Zn1      0.28280    0.21720    0.21720   1.00
Zn1      0.21720    0.28280    0.21720   1.00
Zn1      0.21720    0.21720    0.28280   1.00
Zn1      0.28280    0.28280    0.28280   1.00
O2       0.27350    0.22650    0.16180   1.00
O2       0.27350    0.16180    0.22650   1.00
O2       0.33820    0.22650    0.22650   1.00
O2       0.22650    0.27350    0.16180   1.00
O2       0.16180    0.27350    0.22650   1.00
O2       0.22650    0.33820    0.22650   1.00
O2       0.22650    0.16180    0.27350   1.00
O2       0.16180    0.22650    0.27350   1.00
O2       0.22650    0.22650    0.33820   1.00
O2       0.33820    0.27350    0.27350   1.00
O2       0.27350    0.33820    0.27350   1.00
O2       0.27350    0.27350    0.33820   1.00
C1       0.25000    0.25000    0.14480   1.00
C1       0.25000    0.14480    0.25000   1.00
C1       0.35520    0.25000    0.25000   1.00
C1       0.14480    0.25000    0.25000   1.00
C1       0.25000    0.35520    0.25000   1.00
C1       0.25000    0.25000    0.35520   1.00
O1       0.75000    0.75000    0.25000   1.00
Zn1      0.78280    0.71720    0.21720   1.00
Zn1      0.71720    0.78280    0.21720   1.00
Zn1      0.71720    0.71720    0.28280   1.00
Zn1      0.78280    0.78280    0.28280   1.00
O2       0.77350    0.72650    0.16180   1.00
O2       0.77350    0.66180    0.22650   1.00
O2       0.83820    0.72650    0.22650   1.00
O2       0.72650    0.77350    0.16180   1.00
O2       0.66180    0.77350    0.22650   1.00
O2       0.72650    0.83820    0.22650   1.00
O2       0.72650    0.66180    0.27350   1.00
O2       0.66180    0.72650    0.27350   1.00
O2       0.72650    0.72650    0.33820   1.00
O2       0.83820    0.77350    0.27350   1.00
O2       0.77350    0.83820    0.27350   1.00
O2       0.77350    0.77350    0.33820   1.00
C1       0.75000    0.75000    0.14480   1.00
C1       0.75000    0.64480    0.25000   1.00
C1       0.85520    0.75000    0.25000   1.00
C1       0.64480    0.75000    0.25000   1.00
C1       0.75000    0.85520    0.25000   1.00
C1       0.75000    0.75000    0.35520   1.00
O1       0.75000    0.25000    0.75000   1.00
Zn1      0.78280    0.21720    0.71720   1.00
Zn1      0.71720    0.28280    0.71720   1.00
Zn1      0.71720    0.21720    0.78280   1.00
Zn1      0.78280    0.28280    0.78280   1.00
O2       0.77350    0.22650    0.66180   1.00
O2       0.77350    0.16180    0.72650   1.00
O2       0.83820    0.22650    0.72650   1.00
O2       0.72650    0.27350    0.66180   1.00
O2       0.66180    0.27350    0.72650   1.00
O2       0.72650    0.33820    0.72650   1.00
O2       0.72650    0.16180    0.77350   1.00
O2       0.66180    0.22650    0.77350   1.00
O2       0.72650    0.22650    0.83820   1.00
O2       0.83820    0.27350    0.77350   1.00
O2       0.77350    0.33820    0.77350   1.00
O2       0.77350    0.27350    0.83820   1.00
C1       0.75000    0.25000    0.64480   1.00
C1       0.75000    0.14480    0.75000   1.00
C1       0.85520    0.25000    0.75000   1.00
C1       0.64480    0.25000    0.75000   1.00
C1       0.75000    0.35520    0.75000   1.00
C1       0.75000    0.25000    0.85520   1.00
O1       0.25000    0.75000    0.75000   1.00
Zn1      0.28280    0.71720    0.71720   1.00
Zn1      0.21720    0.78280    0.71720   1.00
Zn1      0.21720    0.71720    0.78280   1.00
Zn1      0.28280    0.78280    0.78280   1.00
O2       0.27350    0.72650    0.66180   1.00
O2       0.27350    0.66180    0.72650   1.00
O2       0.33820    0.72650    0.72650   1.00
O2       0.22650    0.77350    0.66180   1.00
O2       0.16180    0.77350    0.72650   1.00
O2       0.22650    0.83820    0.72650   1.00
O2       0.22650    0.66180    0.77350   1.00
O2       0.16180    0.72650    0.77350   1.00
O2       0.22650    0.72650    0.83820   1.00
O2       0.33820    0.77350    0.77350   1.00
O2       0.27350    0.83820    0.77350   1.00
O2       0.27350    0.77350    0.83820   1.00
C1       0.25000    0.75000    0.64480   1.00
C1       0.25000    0.64480    0.75000   1.00
C1       0.35520    0.75000    0.75000   1.00
C1       0.14480    0.75000    0.75000   1.00
C1       0.25000    0.85520    0.75000   1.00
C1       0.25000    0.75000    0.85520   1.00
C4       0.75016    0.75012    0.97915   1.00
C4       0.74984    0.74988    1.02085   1.00
C3a      0.75868    0.78466    0.95746   1.00
C3       0.78490    0.74771    1.04232   1.00
C3       0.74212    0.71592    0.95768   1.00
C3a      0.71431    0.75170    1.04254   1.00
C2       0.75005    0.74994    0.89488   1.00
C2       0.75005    0.74993    1.10512   1.00
C3       0.75841    0.78404    0.91595   1.00
C3       0.78496    0.74785    1.08363   1.00
C3       0.74196    0.71591    0.91637   1.00
C3       0.71498    0.75177    1.08405   1.00
C5       0.76758    0.82287    0.97772   1.00
H1       0.81246    0.74629    1.02691   1.00
H1       0.76471    0.81041    0.89979   1.00
H1       0.81250    0.74637    1.09901   1.00
H1       0.73542    0.68912    0.90099   1.00
H1       0.68791    0.75336    1.10021   1.00
C5       0.67515    0.75421    1.02228   1.00
H1       0.73552    0.68913    0.97309   1.00
H2       0.65304    0.76645    1.04256   1.00
H2       0.67677    0.77480    0.99731   1.00
H2       0.76225    0.84758    0.95744   1.00
H2       0.74740    0.82727    1.00269   1.00
N1       0.66251    0.71579    1.00857   1.00
C6       0.65300    0.68516    1.03073   1.00
C6       0.65721    0.70499    0.97154   1.00
C6       0.64198    0.65422    1.00759   1.00
C6       0.64465    0.66684    0.96995   1.00
H3       0.65429    0.68503    1.06197   1.00
H3       0.66244    0.72358    0.94700   1.00
H3       0.63298    0.62568    1.01713   1.00
H3       0.63819    0.65008    0.94425   1.00
N1       0.80801    0.82388    0.99143   1.00
C6       0.81989    0.82584    1.02846   1.00
C6       0.84009    0.82414    0.96927   1.00
C6       0.86004    0.82685    1.03005   1.00
C6       0.87289    0.82576    0.99241   1.00
H3       0.80058    0.82620    1.05300   1.00
H3       0.83984    0.82288    0.93803   1.00
H3       0.87795    0.82820    1.05575   1.00
H3       0.90282    0.82614    0.98287   1.00
C4       0.75012    0.97915    0.75016   1.00
C4       0.74988    1.02085    0.74984   1.00
C3a      0.78466    0.95746    0.75868   1.00
C3       0.74771    1.04232    0.78490   1.00
C3       0.71592    0.95768    0.74212   1.00
C3a      0.75170    1.04254    0.71431   1.00
C2       0.74994    0.89488    0.75005   1.00
C2       0.74993    1.10512    0.75005   1.00
C3       0.78404    0.91595    0.75841   1.00
C3       0.74785    1.08363    0.78496   1.00
C3       0.71591    0.91637    0.74196   1.00
C3       0.75177    1.08405    0.71498   1.00
C5       0.82287    0.97772    0.76758   1.00
H1       0.74629    1.02691    0.81246   1.00
H1       0.81041    0.89979    0.76471   1.00
H1       0.74637    1.09901    0.81250   1.00
H1       0.68912    0.90099    0.73542   1.00
H1       0.75336    1.10021    0.68791   1.00
C5       0.75421    1.02228    0.67515   1.00
H1       0.68913    0.97309    0.73552   1.00
H2       0.76645    1.04256    0.65304   1.00
H2       0.77480    0.99731    0.67677   1.00
H2       0.84758    0.95744    0.76225   1.00
H2       0.82727    1.00269    0.74740   1.00
N1       0.71579    1.00857    0.66251   1.00
C6       0.68516    1.03073    0.65300   1.00
C6       0.70499    0.97154    0.65721   1.00
C6       0.65422    1.00759    0.64198   1.00
C6       0.66684    0.96995    0.64465   1.00
H3       0.68503    1.06197    0.65429   1.00
H3       0.72358    0.94700    0.66244   1.00
H3       0.62568    1.01713    0.63298   1.00
H3       0.65008    0.94425    0.63819   1.00
N1       0.82388    0.99143    0.80801   1.00
C6       0.82584    1.02846    0.81989   1.00
C6       0.82414    0.96927    0.84009   1.00
C6       0.82685    1.03005    0.86004   1.00
C6       0.82576    0.99241    0.87289   1.00
H3       0.82620    1.05300    0.80058   1.00
H3       0.82288    0.93803    0.83984   1.00
H3       0.82820    1.05575    0.87795   1.00
H3       0.82614    0.98287    0.90282   1.00
C4       0.52085    0.75016    0.74988   1.00
C4       0.47915    0.74984    0.75012   1.00
C3a      0.54254    0.75868    0.71534   1.00
C3       0.45768    0.78490    0.75229   1.00
C3       0.54232    0.74212    0.78408   1.00
C3a      0.45746    0.71431    0.74830   1.00
C2       0.60512    0.75005    0.75006   1.00
C2       0.39488    0.75005    0.75007   1.00
C3       0.58405    0.75841    0.71596   1.00
C3       0.41637    0.78496    0.75215   1.00
C3       0.58363    0.74196    0.78409   1.00
C3       0.41595    0.71498    0.74823   1.00
C5       0.52228    0.76758    0.67713   1.00
H1       0.47309    0.81246    0.75371   1.00
H1       0.60021    0.76471    0.68959   1.00
H1       0.40099    0.81250    0.75363   1.00
H1       0.59901    0.73542    0.81088   1.00
H1       0.39979    0.68791    0.74664   1.00
C5       0.47772    0.67515    0.74579   1.00
H1       0.52691    0.73552    0.81087   1.00
H2       0.45744    0.65304    0.73355   1.00
H2       0.50269    0.67677    0.72520   1.00
H2       0.54256    0.76225    0.65242   1.00
H2       0.49731    0.74740    0.67273   1.00
N1       0.49143    0.66251    0.78421   1.00
C6       0.46927    0.65300    0.81484   1.00
C6       0.52846    0.65721    0.79501   1.00
C6       0.49241    0.64198    0.84578   1.00
C6       0.53005    0.64465    0.83316   1.00
H3       0.43803    0.65429    0.81497   1.00
H3       0.55300    0.66244    0.77642   1.00
H3       0.48287    0.63298    0.87432   1.00
H3       0.55575    0.63819    0.84992   1.00
N1       0.50857    0.80801    0.67612   1.00
C6       0.47154    0.81989    0.67416   1.00
C6       0.53073    0.84009    0.67586   1.00
C6       0.46995    0.86004    0.67315   1.00
C6       0.50759    0.87289    0.67424   1.00
H3       0.44700    0.80058    0.67380   1.00
H3       0.56197    0.83984    0.67712   1.00
H3       0.44425    0.87795    0.67180   1.00
H3       0.51713    0.90282    0.67386   1.00
C4       0.97915    0.75016    0.75012   1.00
C4       1.02085    0.74984    0.74988   1.00
C3a      0.95746    0.75868    0.78466   1.00
C3       1.04232    0.78490    0.74771   1.00
C3       0.95768    0.74212    0.71592   1.00
C3a      1.04254    0.71431    0.75170   1.00
C2       0.89488    0.75005    0.74994   1.00
C2       1.10512    0.75005    0.74993   1.00
C3       0.91595    0.75841    0.78404   1.00
C3       1.08363    0.78496    0.74785   1.00
C3       0.91637    0.74196    0.71591   1.00
C3       1.08405    0.71498    0.75177   1.00
C5       0.97772    0.76758    0.82287   1.00
H1       1.02691    0.81246    0.74629   1.00
H1       0.89979    0.76471    0.81041   1.00
H1       1.09901    0.81250    0.74637   1.00
H1       0.90099    0.73542    0.68912   1.00
H1       1.10021    0.68791    0.75336   1.00
C5       1.02228    0.67515    0.75421   1.00
H1       0.97309    0.73552    0.68913   1.00
H2       1.04256    0.65304    0.76645   1.00
H2       0.99731    0.67677    0.77480   1.00
H2       0.95744    0.76225    0.84758   1.00
H2       1.00269    0.74740    0.82727   1.00
N1       1.00857    0.66251    0.71579   1.00
C6       1.03073    0.65300    0.68516   1.00
C6       0.97154    0.65721    0.70499   1.00
C6       1.00759    0.64198    0.65422   1.00
C6       0.96995    0.64465    0.66684   1.00
H3       1.06197    0.65429    0.68503   1.00
H3       0.94700    0.66244    0.72358   1.00
H3       1.01713    0.63298    0.62568   1.00
H3       0.94425    0.63819    0.65008   1.00
N1       0.99143    0.80801    0.82388   1.00
C6       1.02846    0.81989    0.82584   1.00
C6       0.96927    0.84009    0.82414   1.00
C6       1.03005    0.86004    0.82685   1.00
C6       0.99241    0.87289    0.82576   1.00
H3       1.05300    0.80058    0.82620   1.00
H3       0.93803    0.83984    0.82288   1.00
H3       1.05575    0.87795    0.82820   1.00
H3       0.98287    0.90282    0.82614   1.00
C4       0.74988    0.52085    0.75016   1.00
C4       0.75012    0.47915    0.74984   1.00
C3a      0.71534    0.54254    0.75868   1.00
C3       0.75229    0.45768    0.78490   1.00
C3       0.78408    0.54232    0.74212   1.00
C3a      0.74830    0.45746    0.71431   1.00
C2       0.75006    0.60512    0.75005   1.00
C2       0.75007    0.39488    0.75005   1.00
C3       0.71596    0.58405    0.75841   1.00
C3       0.75215    0.41637    0.78496   1.00
C3       0.78409    0.58363    0.74196   1.00
C3       0.74823    0.41595    0.71498   1.00
C5       0.67713    0.52228    0.76758   1.00
H1       0.75371    0.47309    0.81246   1.00
H1       0.68959    0.60021    0.76471   1.00
H1       0.75363    0.40099    0.81250   1.00
H1       0.81088    0.59901    0.73542   1.00
H1       0.74664    0.39979    0.68791   1.00
C5       0.74579    0.47772    0.67515   1.00
H1       0.81087    0.52691    0.73552   1.00
H2       0.73355    0.45744    0.65304   1.00
H2       0.72520    0.50269    0.67677   1.00
H2       0.65242    0.54256    0.76225   1.00
H2       0.67273    0.49731    0.74740   1.00
N1       0.78421    0.49143    0.66251   1.00
C6       0.81484    0.46927    0.65300   1.00
C6       0.79501    0.52846    0.65721   1.00
C6       0.84578    0.49241    0.64198   1.00
C6       0.83316    0.53005    0.64465   1.00
H3       0.81497    0.43803    0.65429   1.00
H3       0.77642    0.55300    0.66244   1.00
H3       0.87432    0.48287    0.63298   1.00
H3       0.84992    0.55575    0.63819   1.00
N1       0.67612    0.50857    0.80801   1.00
C6       0.67416    0.47154    0.81989   1.00
C6       0.67586    0.53073    0.84009   1.00
C6       0.67315    0.46995    0.86004   1.00
C6       0.67424    0.50759    0.87289   1.00
H3       0.67380    0.44700    0.80058   1.00
H3       0.67712    0.56197    0.83984   1.00
H3       0.67180    0.44425    0.87795   1.00
H3       0.67386    0.51713    0.90282   1.00
C4       0.75016    0.74988    0.52085   1.00
C4       0.74984    0.75012    0.47915   1.00
C3a      0.75868    0.71534    0.54254   1.00
C3       0.78490    0.75229    0.45768   1.00
C3       0.74212    0.78408    0.54232   1.00
C3a      0.71431    0.74830    0.45746   1.00
C2       0.75005    0.75006    0.60512   1.00
C2       0.75005    0.75007    0.39488   1.00
C3       0.75841    0.71596    0.58405   1.00
C3       0.78496    0.75215    0.41637   1.00
C3       0.74196    0.78409    0.58363   1.00
C3       0.71498    0.74823    0.41595   1.00
C5       0.76758    0.67713    0.52228   1.00
H1       0.81246    0.75371    0.47309   1.00
H1       0.76471    0.68959    0.60021   1.00
H1       0.81250    0.75363    0.40099   1.00
H1       0.73542    0.81088    0.59901   1.00
H1       0.68791    0.74664    0.39979   1.00
C5       0.67515    0.74579    0.47772   1.00
H1       0.73552    0.81087    0.52691   1.00
H2       0.65304    0.73355    0.45744   1.00
H2       0.67677    0.72520    0.50269   1.00
H2       0.76225    0.65242    0.54256   1.00
H2       0.74740    0.67273    0.49731   1.00
N1       0.66251    0.78421    0.49143   1.00
C6       0.65300    0.81484    0.46927   1.00
C6       0.65721    0.79501    0.52846   1.00
C6       0.64198    0.84578    0.49241   1.00
C6       0.64465    0.83316    0.53005   1.00
H3       0.65429    0.81497    0.43803   1.00
H3       0.66244    0.77642    0.55300   1.00
H3       0.63298    0.87432    0.48287   1.00
H3       0.63819    0.84992    0.55575   1.00
N1       0.80801    0.67612    0.50857   1.00
C6       0.81989    0.67416    0.47154   1.00
C6       0.84009    0.67586    0.53073   1.00
C6       0.86004    0.67315    0.46995   1.00
C6       0.87289    0.67424    0.50759   1.00
H3       0.80058    0.67380    0.44700   1.00
H3       0.83984    0.67712    0.56197   1.00
H3       0.87795    0.67180    0.44425   1.00
H3       0.90282    0.67386    0.51713   1.00
C4       0.25016    0.25012    0.97915   1.00
C4       0.24984    0.24988    1.02085   1.00
C3a      0.25868    0.28466    0.95746   1.00
C3       0.28490    0.24771    1.04232   1.00
C3       0.24212    0.21592    0.95768   1.00
C3a      0.21431    0.25170    1.04254   1.00
C2       0.25005    0.24994    0.89488   1.00
C2       0.25005    0.24993    1.10512   1.00
C3       0.25841    0.28404    0.91595   1.00
C3       0.28496    0.24785    1.08363   1.00
C3       0.24196    0.21591    0.91637   1.00
C3       0.21498    0.25177    1.08405   1.00
C5       0.26758    0.32287    0.97772   1.00
H1       0.31246    0.24629    1.02691   1.00
H1       0.26471    0.31041    0.89979   1.00
H1       0.31250    0.24637    1.09901   1.00
H1       0.23542    0.18912    0.90099   1.00
H1       0.18791    0.25336    1.10021   1.00
C5       0.17515    0.25421    1.02228   1.00
H1       0.23552    0.18913    0.97309   1.00
H2       0.15304    0.26645    1.04256   1.00
H2       0.17677    0.27480    0.99731   1.00
H2       0.26225    0.34758    0.95744   1.00
H2       0.24740    0.32727    1.00269   1.00
N1       0.16251    0.21579    1.00857   1.00
C6       0.15300    0.18516    1.03073   1.00
C6       0.15721    0.20499    0.97154   1.00
C6       0.14198    0.15422    1.00759   1.00
C6       0.14465    0.16684    0.96995   1.00
H3       0.15429    0.18503    1.06197   1.00
H3       0.16244    0.22358    0.94700   1.00
H3       0.13298    0.12568    1.01713   1.00
H3       0.13819    0.15008    0.94425   1.00
N1       0.30801    0.32388    0.99143   1.00
C6       0.31989    0.32584    1.02846   1.00
C6       0.34009    0.32414    0.96927   1.00
C6       0.36004    0.32685    1.03005   1.00
C6       0.37289    0.32576    0.99241   1.00
H3       0.30058    0.32620    1.05300   1.00
H3       0.33984    0.32288    0.93803   1.00
H3       0.37795    0.32820    1.05575   1.00
H3       0.40282    0.32614    0.98287   1.00
C4       0.25012    0.47915    0.75016   1.00
C4       0.24988    0.52085    0.74984   1.00
C3a      0.28466    0.45746    0.75868   1.00
C3       0.24771    0.54232    0.78490   1.00
C3       0.21592    0.45768    0.74212   1.00
C3a      0.25170    0.54254    0.71431   1.00
C2       0.24994    0.39488    0.75005   1.00
C2       0.24993    0.60512    0.75005   1.00
C3       0.28404    0.41595    0.75841   1.00
C3       0.24785    0.58363    0.78496   1.00
C3       0.21591    0.41637    0.74196   1.00
C3       0.25177    0.58405    0.71498   1.00
C5       0.32287    0.47772    0.76758   1.00
H1       0.24629    0.52691    0.81246   1.00
H1       0.31041    0.39979    0.76471   1.00
H1       0.24637    0.59901    0.81250   1.00
H1       0.18912    0.40099    0.73542   1.00
H1       0.25336    0.60021    0.68791   1.00
C5       0.25421    0.52228    0.67515   1.00
H1       0.18913    0.47309    0.73552   1.00
H2       0.26645    0.54256    0.65304   1.00
H2       0.27480    0.49731    0.67677   1.00
H2       0.34758    0.45744    0.76225   1.00
H2       0.32727    0.50269    0.74740   1.00
N1       0.21579    0.50857    0.66251   1.00
C6       0.18516    0.53073    0.65300   1.00
C6       0.20499    0.47154    0.65721   1.00
C6       0.15422    0.50759    0.64198   1.00
C6       0.16684    0.46995    0.64465   1.00
H3       0.18503    0.56197    0.65429   1.00
H3       0.22358    0.44700    0.66244   1.00
H3       0.12568    0.51713    0.63298   1.00
H3       0.15008    0.44425    0.63819   1.00
N1       0.32388    0.49143    0.80801   1.00
C6       0.32584    0.52846    0.81989   1.00
C6       0.32414    0.46927    0.84009   1.00
C6       0.32685    0.53005    0.86004   1.00
C6       0.32576    0.49241    0.87289   1.00
H3       0.32620    0.55300    0.80058   1.00
H3       0.32288    0.43803    0.83984   1.00
H3       0.32820    0.55575    0.87795   1.00
H3       0.32614    0.48287    0.90282   1.00
C4       0.02085    0.25016    0.74988   1.00
C4       -0.02085   0.24984    0.75012   1.00
C3a      0.04254    0.25868    0.71534   1.00
C3       -0.04232   0.28490    0.75229   1.00
C3       0.04232    0.24212    0.78408   1.00
C3a      -0.04254   0.21431    0.74830   1.00
C2       0.10512    0.25005    0.75006   1.00
C2       -0.10512   0.25005    0.75007   1.00
C3       0.08405    0.25841    0.71596   1.00
C3       -0.08363   0.28496    0.75215   1.00
C3       0.08363    0.24196    0.78409   1.00
C3       -0.08405   0.21498    0.74823   1.00
C5       0.02228    0.26758    0.67713   1.00
H1       -0.02691   0.31246    0.75371   1.00
H1       0.10021    0.26471    0.68959   1.00
H1       -0.09901   0.31250    0.75363   1.00
H1       0.09901    0.23542    0.81088   1.00
H1       -0.10021   0.18791    0.74664   1.00
C5       -0.02228   0.17515    0.74579   1.00
H1       0.02691    0.23552    0.81087   1.00
H2       -0.04256   0.15304    0.73355   1.00
H2       0.00269    0.17677    0.72520   1.00
H2       0.04256    0.26225    0.65242   1.00
H2       -0.00269   0.24740    0.67273   1.00
N1       -0.00857   0.16251    0.78421   1.00
C6       -0.03073   0.15300    0.81484   1.00
C6       0.02846    0.15721    0.79501   1.00
C6       -0.00759   0.14198    0.84578   1.00
C6       0.03005    0.14465    0.83316   1.00
H3       -0.06197   0.15429    0.81497   1.00
H3       0.05300    0.16244    0.77642   1.00
H3       -0.01713   0.13298    0.87432   1.00
H3       0.05575    0.13819    0.84992   1.00
N1       0.00857    0.30801    0.67612   1.00
C6       -0.02846   0.31989    0.67416   1.00
C6       0.03073    0.34009    0.67586   1.00
C6       -0.03005   0.36004    0.67315   1.00
C6       0.00759    0.37289    0.67424   1.00
H3       -0.05300   0.30058    0.67380   1.00
H3       0.06197    0.33984    0.67712   1.00
H3       -0.05575   0.37795    0.67180   1.00
H3       0.01713    0.40282    0.67386   1.00
C4       0.47915    0.25016    0.75012   1.00
C4       0.52085    0.24984    0.74988   1.00
C3a      0.45746    0.25868    0.78466   1.00
C3       0.54232    0.28490    0.74771   1.00
C3       0.45768    0.24212    0.71592   1.00
C3a      0.54254    0.21431    0.75170   1.00
C2       0.39488    0.25005    0.74994   1.00
C2       0.60512    0.25005    0.74993   1.00
C3       0.41595    0.25841    0.78404   1.00
C3       0.58363    0.28496    0.74785   1.00
C3       0.41637    0.24196    0.71591   1.00
C3       0.58405    0.21498    0.75177   1.00
C5       0.47772    0.26758    0.82287   1.00
H1       0.52691    0.31246    0.74629   1.00
H1       0.39979    0.26471    0.81041   1.00
H1       0.59901    0.31250    0.74637   1.00
H1       0.40099    0.23542    0.68912   1.00
H1       0.60021    0.18791    0.75336   1.00
C5       0.52228    0.17515    0.75421   1.00
H1       0.47309    0.23552    0.68913   1.00
H2       0.54256    0.15304    0.76645   1.00
H2       0.49731    0.17677    0.77480   1.00
H2       0.45744    0.26225    0.84758   1.00
H2       0.50269    0.24740    0.82727   1.00
N1       0.50857    0.16251    0.71579   1.00
C6       0.53073    0.15300    0.68516   1.00
C6       0.47154    0.15721    0.70499   1.00
C6       0.50759    0.14198    0.65422   1.00
C6       0.46995    0.14465    0.66684   1.00
H3       0.56197    0.15429    0.68503   1.00
H3       0.44700    0.16244    0.72358   1.00
H3       0.51713    0.13298    0.62568   1.00
H3       0.44425    0.13819    0.65008   1.00
N1       0.49143    0.30801    0.82388   1.00
C6       0.52846    0.31989    0.82584   1.00
C6       0.46927    0.34009    0.82414   1.00
C6       0.53005    0.36004    0.82685   1.00
C6       0.49241    0.37289    0.82576   1.00
H3       0.55300    0.30058    0.82620   1.00
H3       0.43803    0.33984    0.82288   1.00
H3       0.55575    0.37795    0.82820   1.00
H3       0.48287    0.40282    0.82614   1.00
C4       0.24988    0.02085    0.75016   1.00
C4       0.25012    -0.02085   0.74984   1.00
C3a      0.21534    0.04254    0.75868   1.00
C3       0.25229    -0.04232   0.78490   1.00
C3       0.28408    0.04232    0.74212   1.00
C3a      0.24830    -0.04254   0.71431   1.00
C2       0.25006    0.10512    0.75005   1.00
C2       0.25007    -0.10512   0.75005   1.00
C3       0.21596    0.08405    0.75841   1.00
C3       0.25215    -0.08363   0.78496   1.00
C3       0.28409    0.08363    0.74196   1.00
C3       0.24823    -0.08405   0.71498   1.00
C5       0.17713    0.02228    0.76758   1.00
H1       0.25371    -0.02691   0.81246   1.00
H1       0.18959    0.10021    0.76471   1.00
H1       0.25363    -0.09901   0.81250   1.00
H1       0.31088    0.09901    0.73542   1.00
H1       0.24664    -0.10021   0.68791   1.00
C5       0.24579    -0.02228   0.67515   1.00
H1       0.31087    0.02691    0.73552   1.00
H2       0.23355    -0.04256   0.65304   1.00
H2       0.22520    0.00269    0.67677   1.00
H2       0.15242    0.04256    0.76225   1.00
H2       0.17273    -0.00269   0.74740   1.00
N1       0.28421    -0.00857   0.66251   1.00
C6       0.31484    -0.03073   0.65300   1.00
C6       0.29501    0.02846    0.65721   1.00
C6       0.34578    -0.00759   0.64198   1.00
C6       0.33316    0.03005    0.64465   1.00
H3       0.31497    -0.06197   0.65429   1.00
H3       0.27642    0.05300    0.66244   1.00
H3       0.37432    -0.01713   0.63298   1.00
H3       0.34992    0.05575    0.63819   1.00
N1       0.17612    0.00857    0.80801   1.00
C6       0.17416    -0.02846   0.81989   1.00
C6       0.17586    0.03073    0.84009   1.00
C6       0.17315    -0.03005   0.86004   1.00
C6       0.17424    0.00759    0.87289   1.00
H3       0.17380    -0.05300   0.80058   1.00
H3       0.17712    0.06197    0.83984   1.00
H3       0.17180    -0.05575   0.87795   1.00
H3       0.17386    0.01713    0.90282   1.00
C4       0.25016    0.24988    0.52085   1.00
C4       0.24984    0.25012    0.47915   1.00
C3a      0.25868    0.21534    0.54254   1.00
C3       0.28490    0.25229    0.45768   1.00
C3       0.24212    0.28408    0.54232   1.00
C3a      0.21431    0.24830    0.45746   1.00
C2       0.25005    0.25006    0.60512   1.00
C2       0.25005    0.25007    0.39488   1.00
C3       0.25841    0.21596    0.58405   1.00
C3       0.28496    0.25215    0.41637   1.00
C3       0.24196    0.28409    0.58363   1.00
C3       0.21498    0.24823    0.41595   1.00
C5       0.26758    0.17713    0.52228   1.00
H1       0.31246    0.25371    0.47309   1.00
H1       0.26471    0.18959    0.60021   1.00
H1       0.31250    0.25363    0.40099   1.00
H1       0.23542    0.31088    0.59901   1.00
H1       0.18791    0.24664    0.39979   1.00
C5       0.17515    0.24579    0.47772   1.00
H1       0.23552    0.31087    0.52691   1.00
H2       0.15304    0.23355    0.45744   1.00
H2       0.17677    0.22520    0.50269   1.00
H2       0.26225    0.15242    0.54256   1.00
H2       0.24740    0.17273    0.49731   1.00
N1       0.16251    0.28421    0.49143   1.00
C6       0.15300    0.31484    0.46927   1.00
C6       0.15721    0.29501    0.52846   1.00
C6       0.14198    0.34578    0.49241   1.00
C6       0.14465    0.33316    0.53005   1.00
H3       0.15429    0.31497    0.43803   1.00
H3       0.16244    0.27642    0.55300   1.00
H3       0.13298    0.37432    0.48287   1.00
H3       0.13819    0.34992    0.55575   1.00
N1       0.30801    0.17612    0.50857   1.00
C6       0.31989    0.17416    0.47154   1.00
C6       0.34009    0.17586    0.53073   1.00
C6       0.36004    0.17315    0.46995   1.00
C6       0.37289    0.17424    0.50759   1.00
H3       0.30058    0.17380    0.44700   1.00
H3       0.33984    0.17712    0.56197   1.00
H3       0.37795    0.17180    0.44425   1.00
H3       0.40282    0.17386    0.51713   1.00
C4       0.25016    0.75012    0.47915   1.00
C4       0.24984    0.74988    0.52085   1.00
C3a      0.25868    0.78466    0.45746   1.00
C3       0.28490    0.74771    0.54232   1.00
C3       0.24212    0.71592    0.45768   1.00
C3a      0.21431    0.75170    0.54254   1.00
C2       0.25005    0.74994    0.39488   1.00
C2       0.25005    0.74993    0.60512   1.00
C3       0.25841    0.78404    0.41595   1.00
C3       0.28496    0.74785    0.58363   1.00
C3       0.24196    0.71591    0.41637   1.00
C3       0.21498    0.75177    0.58405   1.00
C5       0.26758    0.82287    0.47772   1.00
H1       0.31246    0.74629    0.52691   1.00
H1       0.26471    0.81041    0.39979   1.00
H1       0.31250    0.74637    0.59901   1.00
H1       0.23542    0.68912    0.40099   1.00
H1       0.18791    0.75336    0.60021   1.00
C5       0.17515    0.75421    0.52228   1.00
H1       0.23552    0.68913    0.47309   1.00
H2       0.15304    0.76645    0.54256   1.00
H2       0.17677    0.77480    0.49731   1.00
H2       0.26225    0.84758    0.45744   1.00
H2       0.24740    0.82727    0.50269   1.00
N1       0.16251    0.71579    0.50857   1.00
C6       0.15300    0.68516    0.53073   1.00
C6       0.15721    0.70499    0.47154   1.00
C6       0.14198    0.65422    0.50759   1.00
C6       0.14465    0.66684    0.46995   1.00
H3       0.15429    0.68503    0.56197   1.00
H3       0.16244    0.72358    0.44700   1.00
H3       0.13298    0.62568    0.51713   1.00
H3       0.13819    0.65008    0.44425   1.00
N1       0.30801    0.82388    0.49143   1.00
C6       0.31989    0.82584    0.52846   1.00
C6       0.34009    0.82414    0.46927   1.00
C6       0.36004    0.82685    0.53005   1.00
C6       0.37289    0.82576    0.49241   1.00
H3       0.30058    0.82620    0.55300   1.00
H3       0.33984    0.82288    0.43803   1.00
H3       0.37795    0.82820    0.55575   1.00
H3       0.40282    0.82614    0.48287   1.00
C4       0.25012    0.97915    0.25016   1.00
C4       0.24988    1.02085    0.24984   1.00
C3a      0.28466    0.95746    0.25868   1.00
C3       0.24771    1.04232    0.28490   1.00
C3       0.21592    0.95768    0.24212   1.00
C3a      0.25170    1.04254    0.21431   1.00
C2       0.24994    0.89488    0.25005   1.00
C2       0.24993    1.10512    0.25005   1.00
C3       0.28404    0.91595    0.25841   1.00
C3       0.24785    1.08363    0.28496   1.00
C3       0.21591    0.91637    0.24196   1.00
C3       0.25177    1.08405    0.21498   1.00
C5       0.32287    0.97772    0.26758   1.00
H1       0.24629    1.02691    0.31246   1.00
H1       0.31041    0.89979    0.26471   1.00
H1       0.24637    1.09901    0.31250   1.00
H1       0.18912    0.90099    0.23542   1.00
H1       0.25336    1.10021    0.18791   1.00
C5       0.25421    1.02228    0.17515   1.00
H1       0.18913    0.97309    0.23552   1.00
H2       0.26645    1.04256    0.15304   1.00
H2       0.27480    0.99731    0.17677   1.00
H2       0.34758    0.95744    0.26225   1.00
H2       0.32727    1.00269    0.24740   1.00
N1       0.21579    1.00857    0.16251   1.00
C6       0.18516    1.03073    0.15300   1.00
C6       0.20499    0.97154    0.15721   1.00
C6       0.15422    1.00759    0.14198   1.00
C6       0.16684    0.96995    0.14465   1.00
H3       0.18503    1.06197    0.15429   1.00
H3       0.22358    0.94700    0.16244   1.00
H3       0.12568    1.01713    0.13298   1.00
H3       0.15008    0.94425    0.13819   1.00
N1       0.32388    0.99143    0.30801   1.00
C6       0.32584    1.02846    0.31989   1.00
C6       0.32414    0.96927    0.34009   1.00
C6       0.32685    1.03005    0.36004   1.00
C6       0.32576    0.99241    0.37289   1.00
H3       0.32620    1.05300    0.30058   1.00
H3       0.32288    0.93803    0.33984   1.00
H3       0.32820    1.05575    0.37795   1.00
H3       0.32614    0.98287    0.40282   1.00
C4       0.02085    0.75016    0.24988   1.00
C4       -0.02085   0.74984    0.25012   1.00
C3a      0.04254    0.75868    0.21534   1.00
C3       -0.04232   0.78490    0.25229   1.00
C3       0.04232    0.74212    0.28408   1.00
C3a      -0.04254   0.71431    0.24830   1.00
C2       0.10512    0.75005    0.25006   1.00
C2       -0.10512   0.75005    0.25007   1.00
C3       0.08405    0.75841    0.21596   1.00
C3       -0.08363   0.78496    0.25215   1.00
C3       0.08363    0.74196    0.28409   1.00
C3       -0.08405   0.71498    0.24823   1.00
C5       0.02228    0.76758    0.17713   1.00
H1       -0.02691   0.81246    0.25371   1.00
H1       0.10021    0.76471    0.18959   1.00
H1       -0.09901   0.81250    0.25363   1.00
H1       0.09901    0.73542    0.31088   1.00
H1       -0.10021   0.68791    0.24664   1.00
C5       -0.02228   0.67515    0.24579   1.00
H1       0.02691    0.73552    0.31087   1.00
H2       -0.04256   0.65304    0.23355   1.00
H2       0.00269    0.67677    0.22520   1.00
H2       0.04256    0.76225    0.15242   1.00
H2       -0.00269   0.74740    0.17273   1.00
N1       -0.00857   0.66251    0.28421   1.00
C6       -0.03073   0.65300    0.31484   1.00
C6       0.02846    0.65721    0.29501   1.00
C6       -0.00759   0.64198    0.34578   1.00
C6       0.03005    0.64465    0.33316   1.00
H3       -0.06197   0.65429    0.31497   1.00
H3       0.05300    0.66244    0.27642   1.00
H3       -0.01713   0.63298    0.37432   1.00
H3       0.05575    0.63819    0.34992   1.00
N1       0.00857    0.80801    0.17612   1.00
C6       -0.02846   0.81989    0.17416   1.00
C6       0.03073    0.84009    0.17586   1.00
C6       -0.03005   0.86004    0.17315   1.00
C6       0.00759    0.87289    0.17424   1.00
H3       -0.05300   0.80058    0.17380   1.00
H3       0.06197    0.83984    0.17712   1.00
H3       -0.05575   0.87795    0.17180   1.00
H3       0.01713    0.90282    0.17386   1.00
C4       0.47915    0.75016    0.25012   1.00
C4       0.52085    0.74984    0.24988   1.00
C3a      0.45746    0.75868    0.28466   1.00
C3       0.54232    0.78490    0.24771   1.00
C3       0.45768    0.74212    0.21592   1.00
C3a      0.54254    0.71431    0.25170   1.00
C2       0.39488    0.75005    0.24994   1.00
C2       0.60512    0.75005    0.24993   1.00
C3       0.41595    0.75841    0.28404   1.00
C3       0.58363    0.78496    0.24785   1.00
C3       0.41637    0.74196    0.21591   1.00
C3       0.58405    0.71498    0.25177   1.00
C5       0.47772    0.76758    0.32287   1.00
H1       0.52691    0.81246    0.24629   1.00
H1       0.39979    0.76471    0.31041   1.00
H1       0.59901    0.81250    0.24637   1.00
H1       0.40099    0.73542    0.18912   1.00
H1       0.60021    0.68791    0.25336   1.00
C5       0.52228    0.67515    0.25421   1.00
H1       0.47309    0.73552    0.18913   1.00
H2       0.54256    0.65304    0.26645   1.00
H2       0.49731    0.67677    0.27480   1.00
H2       0.45744    0.76225    0.34758   1.00
H2       0.50269    0.74740    0.32727   1.00
N1       0.50857    0.66251    0.21579   1.00
C6       0.53073    0.65300    0.18516   1.00
C6       0.47154    0.65721    0.20499   1.00
C6       0.50759    0.64198    0.15422   1.00
C6       0.46995    0.64465    0.16684   1.00
H3       0.56197    0.65429    0.18503   1.00
H3       0.44700    0.66244    0.22358   1.00
H3       0.51713    0.63298    0.12568   1.00
H3       0.44425    0.63819    0.15008   1.00
N1       0.49143    0.80801    0.32388   1.00
C6       0.52846    0.81989    0.32584   1.00
C6       0.46927    0.84009    0.32414   1.00
C6       0.53005    0.86004    0.32685   1.00
C6       0.49241    0.87289    0.32576   1.00
H3       0.55300    0.80058    0.32620   1.00
H3       0.43803    0.83984    0.32288   1.00
H3       0.55575    0.87795    0.32820   1.00
H3       0.48287    0.90282    0.32614   1.00
C4       0.24988    0.52085    0.25016   1.00
C4       0.25012    0.47915    0.24984   1.00
C3a      0.21534    0.54254    0.25868   1.00
C3       0.25229    0.45768    0.28490   1.00
C3       0.28408    0.54232    0.24212   1.00
C3a      0.24830    0.45746    0.21431   1.00
C2       0.25006    0.60512    0.25005   1.00
C2       0.25007    0.39488    0.25005   1.00
C3       0.21596    0.58405    0.25841   1.00
C3       0.25215    0.41637    0.28496   1.00
C3       0.28409    0.58363    0.24196   1.00
C3       0.24823    0.41595    0.21498   1.00
C5       0.17713    0.52228    0.26758   1.00
H1       0.25371    0.47309    0.31246   1.00
H1       0.18959    0.60021    0.26471   1.00
H1       0.25363    0.40099    0.31250   1.00
H1       0.31088    0.59901    0.23542   1.00
H1       0.24664    0.39979    0.18791   1.00
C5       0.24579    0.47772    0.17515   1.00
H1       0.31087    0.52691    0.23552   1.00
H2       0.23355    0.45744    0.15304   1.00
H2       0.22520    0.50269    0.17677   1.00
H2       0.15242    0.54256    0.26225   1.00
H2       0.17273    0.49731    0.24740   1.00
N1       0.28421    0.49143    0.16251   1.00
C6       0.31484    0.46927    0.15300   1.00
C6       0.29501    0.52846    0.15721   1.00
C6       0.34578    0.49241    0.14198   1.00
C6       0.33316    0.53005    0.14465   1.00
H3       0.31497    0.43803    0.15429   1.00
H3       0.27642    0.55300    0.16244   1.00
H3       0.37432    0.48287    0.13298   1.00
H3       0.34992    0.55575    0.13819   1.00
N1       0.17612    0.50857    0.30801   1.00
C6       0.17416    0.47154    0.31989   1.00
C6       0.17586    0.53073    0.34009   1.00
C6       0.17315    0.46995    0.36004   1.00
C6       0.17424    0.50759    0.37289   1.00
H3       0.17380    0.44700    0.30058   1.00
H3       0.17712    0.56197    0.33984   1.00
H3       0.17180    0.44425    0.37795   1.00
H3       0.17386    0.51713    0.40282   1.00
C4       0.25016    0.74988    0.02085   1.00
C4       0.24984    0.75012    -0.02085   1.00
C3a      0.25868    0.71534    0.04254   1.00
C3       0.28490    0.75229    -0.04232   1.00
C3       0.24212    0.78408    0.04232   1.00
C3a      0.21431    0.74830    -0.04254   1.00
C2       0.25005    0.75006    0.10512   1.00
C2       0.25005    0.75007    -0.10512   1.00
C3       0.25841    0.71596    0.08405   1.00
C3       0.28496    0.75215    -0.08363   1.00
C3       0.24196    0.78409    0.08363   1.00
C3       0.21498    0.74823    -0.08405   1.00
C5       0.26758    0.67713    0.02228   1.00
H1       0.31246    0.75371    -0.02691   1.00
H1       0.26471    0.68959    0.10021   1.00
H1       0.31250    0.75363    -0.09901   1.00
H1       0.23542    0.81088    0.09901   1.00
H1       0.18791    0.74664    -0.10021   1.00
C5       0.17515    0.74579    -0.02228   1.00
H1       0.23552    0.81087    0.02691   1.00
H2       0.15304    0.73355    -0.04256   1.00
H2       0.17677    0.72520    0.00269   1.00
H2       0.26225    0.65242    0.04256   1.00
H2       0.24740    0.67273    -0.00269   1.00
N1       0.16251    0.78421    -0.00857   1.00
C6       0.15300    0.81484    -0.03073   1.00
C6       0.15721    0.79501    0.02846   1.00
C6       0.14198    0.84578    -0.00759   1.00
C6       0.14465    0.83316    0.03005   1.00
H3       0.15429    0.81497    -0.06197   1.00
H3       0.16244    0.77642    0.05300   1.00
H3       0.13298    0.87432    -0.01713   1.00
H3       0.13819    0.84992    0.05575   1.00
N1       0.30801    0.67612    0.00857   1.00
C6       0.31989    0.67416    -0.02846   1.00
C6       0.34009    0.67586    0.03073   1.00
C6       0.36004    0.67315    -0.03005   1.00
C6       0.37289    0.67424    0.00759   1.00
H3       0.30058    0.67380    -0.05300   1.00
H3       0.33984    0.67712    0.06197   1.00
H3       0.37795    0.67180    -0.05575   1.00
H3       0.40282    0.67386    0.01713   1.00
C4       0.75016    0.25012    0.47915   1.00
C4       0.74984    0.24988    0.52085   1.00
C3a      0.75868    0.28466    0.45746   1.00
C3       0.78490    0.24771    0.54232   1.00
C3       0.74212    0.21592    0.45768   1.00
C3a      0.71431    0.25170    0.54254   1.00
C2       0.75005    0.24994    0.39488   1.00
C2       0.75005    0.24993    0.60512   1.00
C3       0.75841    0.28404    0.41595   1.00
C3       0.78496    0.24785    0.58363   1.00
C3       0.74196    0.21591    0.41637   1.00
C3       0.71498    0.25177    0.58405   1.00
C5       0.76758    0.32287    0.47772   1.00
H1       0.81246    0.24629    0.52691   1.00
H1       0.76471    0.31041    0.39979   1.00
H1       0.81250    0.24637    0.59901   1.00
H1       0.73542    0.18912    0.40099   1.00
H1       0.68791    0.25336    0.60021   1.00
C5       0.67515    0.25421    0.52228   1.00
H1       0.73552    0.18913    0.47309   1.00
H2       0.65304    0.26645    0.54256   1.00
H2       0.67677    0.27480    0.49731   1.00
H2       0.76225    0.34758    0.45744   1.00
H2       0.74740    0.32727    0.50269   1.00
N1       0.66251    0.21579    0.50857   1.00
C6       0.65300    0.18516    0.53073   1.00
C6       0.65721    0.20499    0.47154   1.00
C6       0.64198    0.15422    0.50759   1.00
C6       0.64465    0.16684    0.46995   1.00
H3       0.65429    0.18503    0.56197   1.00
H3       0.66244    0.22358    0.44700   1.00
H3       0.63298    0.12568    0.51713   1.00
H3       0.63819    0.15008    0.44425   1.00
N1       0.80801    0.32388    0.49143   1.00
C6       0.81989    0.32584    0.52846   1.00
C6       0.84009    0.32414    0.46927   1.00
C6       0.86004    0.32685    0.53005   1.00
C6       0.87289    0.32576    0.49241   1.00
H3       0.80058    0.32620    0.55300   1.00
H3       0.83984    0.32288    0.43803   1.00
H3       0.87795    0.32820    0.55575   1.00
H3       0.90282    0.32614    0.48287   1.00
C4       0.75012    0.47915    0.25016   1.00
C4       0.74988    0.52085    0.24984   1.00
C3a      0.78466    0.45746    0.25868   1.00
C3       0.74771    0.54232    0.28490   1.00
C3       0.71592    0.45768    0.24212   1.00
C3a      0.75170    0.54254    0.21431   1.00
C2       0.74994    0.39488    0.25005   1.00
C2       0.74993    0.60512    0.25005   1.00
C3       0.78404    0.41595    0.25841   1.00
C3       0.74785    0.58363    0.28496   1.00
C3       0.71591    0.41637    0.24196   1.00
C3       0.75177    0.58405    0.21498   1.00
C5       0.82287    0.47772    0.26758   1.00
H1       0.74629    0.52691    0.31246   1.00
H1       0.81041    0.39979    0.26471   1.00
H1       0.74637    0.59901    0.31250   1.00
H1       0.68912    0.40099    0.23542   1.00
H1       0.75336    0.60021    0.18791   1.00
C5       0.75421    0.52228    0.17515   1.00
H1       0.68913    0.47309    0.23552   1.00
H2       0.76645    0.54256    0.15304   1.00
H2       0.77480    0.49731    0.17677   1.00
H2       0.84758    0.45744    0.26225   1.00
H2       0.82727    0.50269    0.24740   1.00
N1       0.71579    0.50857    0.16251   1.00
C6       0.68516    0.53073    0.15300   1.00
C6       0.70499    0.47154    0.15721   1.00
C6       0.65422    0.50759    0.14198   1.00
C6       0.66684    0.46995    0.14465   1.00
H3       0.68503    0.56197    0.15429   1.00
H3       0.72358    0.44700    0.16244   1.00
H3       0.62568    0.51713    0.13298   1.00
H3       0.65008    0.44425    0.13819   1.00
N1       0.82388    0.49143    0.30801   1.00
C6       0.82584    0.52846    0.31989   1.00
C6       0.82414    0.46927    0.34009   1.00
C6       0.82685    0.53005    0.36004   1.00
C6       0.82576    0.49241    0.37289   1.00
H3       0.82620    0.55300    0.30058   1.00
H3       0.82288    0.43803    0.33984   1.00
H3       0.82820    0.55575    0.37795   1.00
H3       0.82614    0.48287    0.40282   1.00
C4       0.52085    0.25016    0.24988   1.00
C4       0.47915    0.24984    0.25012   1.00
C3a      0.54254    0.25868    0.21534   1.00
C3       0.45768    0.28490    0.25229   1.00
C3       0.54232    0.24212    0.28408   1.00
C3a      0.45746    0.21431    0.24830   1.00
C2       0.60512    0.25005    0.25006   1.00
C2       0.39488    0.25005    0.25007   1.00
C3       0.58405    0.25841    0.21596   1.00
C3       0.41637    0.28496    0.25215   1.00
C3       0.58363    0.24196    0.28409   1.00
C3       0.41595    0.21498    0.24823   1.00
C5       0.52228    0.26758    0.17713   1.00
H1       0.47309    0.31246    0.25371   1.00
H1       0.60021    0.26471    0.18959   1.00
H1       0.40099    0.31250    0.25363   1.00
H1       0.59901    0.23542    0.31088   1.00
H1       0.39979    0.18791    0.24664   1.00
C5       0.47772    0.17515    0.24579   1.00
H1       0.52691    0.23552    0.31087   1.00
H2       0.45744    0.15304    0.23355   1.00
H2       0.50269    0.17677    0.22520   1.00
H2       0.54256    0.26225    0.15242   1.00
H2       0.49731    0.24740    0.17273   1.00
N1       0.49143    0.16251    0.28421   1.00
C6       0.46927    0.15300    0.31484   1.00
C6       0.52846    0.15721    0.29501   1.00
C6       0.49241    0.14198    0.34578   1.00
C6       0.53005    0.14465    0.33316   1.00
H3       0.43803    0.15429    0.31497   1.00
H3       0.55300    0.16244    0.27642   1.00
H3       0.48287    0.13298    0.37432   1.00
H3       0.55575    0.13819    0.34992   1.00
N1       0.50857    0.30801    0.17612   1.00
C6       0.47154    0.31989    0.17416   1.00
C6       0.53073    0.34009    0.17586   1.00
C6       0.46995    0.36004    0.17315   1.00
C6       0.50759    0.37289    0.17424   1.00
H3       0.44700    0.30058    0.17380   1.00
H3       0.56197    0.33984    0.17712   1.00
H3       0.44425    0.37795    0.17180   1.00
H3       0.51713    0.40282    0.17386   1.00
C4       0.97915    0.25016    0.25012   1.00
C4       1.02085    0.24984    0.24988   1.00
C3a      0.95746    0.25868    0.28466   1.00
C3       1.04232    0.28490    0.24771   1.00
C3       0.95768    0.24212    0.21592   1.00
C3a      1.04254    0.21431    0.25170   1.00
C2       0.89488    0.25005    0.24994   1.00
C2       1.10512    0.25005    0.24993   1.00
C3       0.91595    0.25841    0.28404   1.00
C3       1.08363    0.28496    0.24785   1.00
C3       0.91637    0.24196    0.21591   1.00
C3       1.08405    0.21498    0.25177   1.00
C5       0.97772    0.26758    0.32287   1.00
H1       1.02691    0.31246    0.24629   1.00
H1       0.89979    0.26471    0.31041   1.00
H1       1.09901    0.31250    0.24637   1.00
H1       0.90099    0.23542    0.18912   1.00
H1       1.10021    0.18791    0.25336   1.00
C5       1.02228    0.17515    0.25421   1.00
H1       0.97309    0.23552    0.18913   1.00
H2       1.04256    0.15304    0.26645   1.00
H2       0.99731    0.17677    0.27480   1.00
H2       0.95744    0.26225    0.34758   1.00
H2       1.00269    0.24740    0.32727   1.00
N1       1.00857    0.16251    0.21579   1.00
C6       1.03073    0.15300    0.18516   1.00
C6       0.97154    0.15721    0.20499   1.00
C6       1.00759    0.14198    0.15422   1.00
C6       0.96995    0.14465    0.16684   1.00
H3       1.06197    0.15429    0.18503   1.00
H3       0.94700    0.16244    0.22358   1.00
H3       1.01713    0.13298    0.12568   1.00
H3       0.94425    0.13819    0.15008   1.00
N1       0.99143    0.30801    0.32388   1.00
C6       1.02846    0.31989    0.32584   1.00
C6       0.96927    0.34009    0.32414   1.00
C6       1.03005    0.36004    0.32685   1.00
C6       0.99241    0.37289    0.32576   1.00
H3       1.05300    0.30058    0.32620   1.00
H3       0.93803    0.33984    0.32288   1.00
H3       1.05575    0.37795    0.32820   1.00
H3       0.98287    0.40282    0.32614   1.00
C4       0.74988    0.02085    0.25016   1.00
C4       0.75012    -0.02085   0.24984   1.00
C3a      0.71534    0.04254    0.25868   1.00
C3       0.75229    -0.04232   0.28490   1.00
C3       0.78408    0.04232    0.24212   1.00
C3a      0.74830    -0.04254   0.21431   1.00
C2       0.75006    0.10512    0.25005   1.00
C2       0.75007    -0.10512   0.25005   1.00
C3       0.71596    0.08405    0.25841   1.00
C3       0.75215    -0.08363   0.28496   1.00
C3       0.78409    0.08363    0.24196   1.00
C3       0.74823    -0.08405   0.21498   1.00
C5       0.67713    0.02228    0.26758   1.00
H1       0.75371    -0.02691   0.31246   1.00
H1       0.68959    0.10021    0.26471   1.00
H1       0.75363    -0.09901   0.31250   1.00
H1       0.81088    0.09901    0.23542   1.00
H1       0.74664    -0.10021   0.18791   1.00
C5       0.74579    -0.02228   0.17515   1.00
H1       0.81087    0.02691    0.23552   1.00
H2       0.73355    -0.04256   0.15304   1.00
H2       0.72520    0.00269    0.17677   1.00
H2       0.65242    0.04256    0.26225   1.00
H2       0.67273    -0.00269   0.24740   1.00
N1       0.78421    -0.00857   0.16251   1.00
C6       0.81484    -0.03073   0.15300   1.00
C6       0.79501    0.02846    0.15721   1.00
C6       0.84578    -0.00759   0.14198   1.00
C6       0.83316    0.03005    0.14465   1.00
H3       0.81497    -0.06197   0.15429   1.00
H3       0.77642    0.05300    0.16244   1.00
H3       0.87432    -0.01713   0.13298   1.00
H3       0.84992    0.05575    0.13819   1.00
N1       0.67612    0.00857    0.30801   1.00
C6       0.67416    -0.02846   0.31989   1.00
C6       0.67586    0.03073    0.34009   1.00
C6       0.67315    -0.03005   0.36004   1.00
C6       0.67424    0.00759    0.37289   1.00
H3       0.67380    -0.05300   0.30058   1.00
H3       0.67712    0.06197    0.33984   1.00
H3       0.67180    -0.05575   0.37795   1.00
H3       0.67386    0.01713    0.40282   1.00
C4       0.75016    0.24988    0.02085   1.00
C4       0.74984    0.25012    -0.02085   1.00
C3a      0.75868    0.21534    0.04254   1.00
C3       0.78490    0.25229    -0.04232   1.00
C3       0.74212    0.28408    0.04232   1.00
C3a      0.71431    0.24830    -0.04254   1.00
C2       0.75005    0.25006    0.10512   1.00
C2       0.75005    0.25007    -0.10512   1.00
C3       0.75841    0.21596    0.08405   1.00
C3       0.78496    0.25215    -0.08363   1.00
C3       0.74196    0.28409    0.08363   1.00
C3       0.71498    0.24823    -0.08405   1.00
C5       0.76758    0.17713    0.02228   1.00
H1       0.81246    0.25371    -0.02691   1.00
H1       0.76471    0.18959    0.10021   1.00
H1       0.81250    0.25363    -0.09901   1.00
H1       0.73542    0.31088    0.09901   1.00
H1       0.68791    0.24664    -0.10021   1.00
C5       0.67515    0.24579    -0.02228   1.00
H1       0.73552    0.31087    0.02691   1.00
H2       0.65304    0.23355    -0.04256   1.00
H2       0.67677    0.22520    0.00269   1.00
H2       0.76225    0.15242    0.04256   1.00
H2       0.74740    0.17273    -0.00269   1.00
N1       0.66251    0.28421    -0.00857   1.00
C6       0.65300    0.31484    -0.03073   1.00
C6       0.65721    0.29501    0.02846   1.00
C6       0.64198    0.34578    -0.00759   1.00
C6       0.64465    0.33316    0.03005   1.00
H3       0.65429    0.31497    -0.06197   1.00
H3       0.66244    0.27642    0.05300   1.00
H3       0.63298    0.37432    -0.01713   1.00
H3       0.63819    0.34992    0.05575   1.00
N1       0.80801    0.17612    0.00857   1.00
C6       0.81989    0.17416    -0.02846   1.00
C6       0.84009    0.17586    0.03073   1.00
C6       0.86004    0.17315    -0.03005   1.00
C6       0.87289    0.17424    0.00759   1.00
H3       0.80058    0.17380    -0.05300   1.00
H3       0.83984    0.17712    0.06197   1.00
H3       0.87795    0.17180    -0.05575   1.00
H3       0.90282    0.17386    0.01713   1.00
