data_IRMOF10_SG202_Ligand6_label_f.

_audit_creation_method             'generated by an auxiliary program of Tobunporous'

_symmetry_space_group_name_H-M     'P 1'
_symmetry_Int_Tables_number        1
_symmetry_cell_setting             triclinic

_cell_length_a                    34.2800
_cell_length_b                    34.2800
_cell_length_c                    34.2800
_cell_angle_alpha                 90.0000
_cell_angle_beta                  90.0000
_cell_angle_gamma                 90.0000

loop_
_atom_site_label
_atom_site_fract_x
_atom_site_fract_y
_atom_site_fract_z
_atom_site_occupancy
O1       0.75000    0.75000    0.75000   1.00
Zn1      0.71720    0.78280    0.78280   1.00
Zn1      0.78280    0.71720    0.78280   1.00
Zn1      0.78280    0.78280    0.71720   1.00
Zn1      0.71720    0.71720    0.71720   1.00
O2       0.72650    0.77350    0.83820   1.00
O2       0.72650    0.83820    0.77350   1.00
O2       0.66180    0.77350    0.77350   1.00
O2       0.77350    0.72650    0.83820   1.00
O2       0.83820    0.72650    0.77350   1.00
O2       0.77350    0.66180    0.77350   1.00
O2       0.77350    0.83820    0.72650   1.00
O2       0.83820    0.77350    0.72650   1.00
O2       0.77350    0.77350    0.66180   1.00
O2       0.66180    0.72650    0.72650   1.00
O2       0.72650    0.66180    0.72650   1.00
O2       0.72650    0.72650    0.66180   1.00
C1       0.75000    0.75000    0.85520   1.00
C1       0.75000    0.85520    0.75000   1.00
C1       0.64480    0.75000    0.75000   1.00
C1       0.85520    0.75000    0.75000   1.00
C1       0.75000    0.64480    0.75000   1.00
C1       0.75000    0.75000    0.64480   1.00
O1       0.25000    0.25000    0.75000   1.00
Zn1      0.21720    0.28280    0.78280   1.00
Zn1      0.28280    0.21720    0.78280   1.00
Zn1      0.28280    0.28280    0.71720   1.00
Zn1      0.21720    0.21720    0.71720   1.00
O2       0.22650    0.27350    0.83820   1.00
O2       0.22650    0.33820    0.77350   1.00
O2       0.16180    0.27350    0.77350   1.00
O2       0.27350    0.22650    0.83820   1.00
O2       0.33820    0.22650    0.77350   1.00
O2       0.27350    0.16180    0.77350   1.00
O2       0.27350    0.33820    0.72650   1.00
O2       0.33820    0.27350    0.72650   1.00
O2       0.27350    0.27350    0.66180   1.00
O2       0.16180    0.22650    0.72650   1.00
O2       0.22650    0.16180    0.72650   1.00
O2       0.22650    0.22650    0.66180   1.00
C1       0.25000    0.25000    0.85520   1.00
C1       0.25000    0.35520    0.75000   1.00
C1       0.14480    0.25000    0.75000   1.00
C1       0.35520    0.25000    0.75000   1.00
C1       0.25000    0.14480    0.75000   1.00
C1       0.25000    0.25000    0.64480   1.00
O1       0.25000    0.75000    0.25000   1.00
Zn1      0.21720    0.78280    0.28280   1.00
Zn1      0.28280    0.71720    0.28280   1.00
Zn1      0.28280    0.78280    0.21720   1.00
Zn1      0.21720    0.71720    0.21720   1.00
O2       0.22650    0.77350    0.33820   1.00
O2       0.22650    0.83820    0.27350   1.00
O2       0.16180    0.77350    0.27350   1.00
O2       0.27350    0.72650    0.33820   1.00
O2       0.33820    0.72650    0.27350   1.00
O2       0.27350    0.66180    0.27350   1.00
O2       0.27350    0.83820    0.22650   1.00
O2       0.33820    0.77350    0.22650   1.00
O2       0.27350    0.77350    0.16180   1.00
O2       0.16180    0.72650    0.22650   1.00
O2       0.22650    0.66180    0.22650   1.00
O2       0.22650    0.72650    0.16180   1.00
C1       0.25000    0.75000    0.35520   1.00
C1       0.25000    0.85520    0.25000   1.00
C1       0.14480    0.75000    0.25000   1.00
C1       0.35520    0.75000    0.25000   1.00
C1       0.25000    0.64480    0.25000   1.00
C1       0.25000    0.75000    0.14480   1.00
O1       0.75000    0.25000    0.25000   1.00
Zn1      0.71720    0.28280    0.28280   1.00
Zn1      0.78280    0.21720    0.28280   1.00
Zn1      0.78280    0.28280    0.21720   1.00
Zn1      0.71720    0.21720    0.21720   1.00
O2       0.72650    0.27350    0.33820   1.00
O2       0.72650    0.33820    0.27350   1.00
O2       0.66180    0.27350    0.27350   1.00
O2       0.77350    0.22650    0.33820   1.00
O2       0.83820    0.22650    0.27350   1.00
O2       0.77350    0.16180    0.27350   1.00
O2       0.77350    0.33820    0.22650   1.00
O2       0.83820    0.27350    0.22650   1.00
O2       0.77350    0.27350    0.16180   1.00
O2       0.66180    0.22650    0.22650   1.00
O2       0.72650    0.16180    0.22650   1.00
O2       0.72650    0.22650    0.16180   1.00
C1       0.75000    0.25000    0.35520   1.00
C1       0.75000    0.35520    0.25000   1.00
C1       0.64480    0.25000    0.25000   1.00
C1       0.85520    0.25000    0.25000   1.00
C1       0.75000    0.14480    0.25000   1.00
C1       0.75000    0.25000    0.14480   1.00
O1       0.25000    0.25000    0.25000   1.00
Zn1      0.28280    0.21720    0.21720   1.00
Zn1      0.21720    0.28280    0.21720   1.00
Zn1      0.21720    0.21720    0.28280   1.00
Zn1      0.28280    0.28280    0.28280   1.00
O2       0.27350    0.22650    0.16180   1.00
O2       0.27350    0.16180    0.22650   1.00
O2       0.33820    0.22650    0.22650   1.00
O2       0.22650    0.27350    0.16180   1.00
O2       0.16180    0.27350    0.22650   1.00
O2       0.22650    0.33820    0.22650   1.00
O2       0.22650    0.16180    0.27350   1.00
O2       0.16180    0.22650    0.27350   1.00
O2       0.22650    0.22650    0.33820   1.00
O2       0.33820    0.27350    0.27350   1.00
O2       0.27350    0.33820    0.27350   1.00
O2       0.27350    0.27350    0.33820   1.00
C1       0.25000    0.25000    0.14480   1.00
C1       0.25000    0.14480    0.25000   1.00
C1       0.35520    0.25000    0.25000   1.00
C1       0.14480    0.25000    0.25000   1.00
C1       0.25000    0.35520    0.25000   1.00
C1       0.25000    0.25000    0.35520   1.00
O1       0.75000    0.75000    0.25000   1.00
Zn1      0.78280    0.71720    0.21720   1.00
Zn1      0.71720    0.78280    0.21720   1.00
Zn1      0.71720    0.71720    0.28280   1.00
Zn1      0.78280    0.78280    0.28280   1.00
O2       0.77350    0.72650    0.16180   1.00
O2       0.77350    0.66180    0.22650   1.00
O2       0.83820    0.72650    0.22650   1.00
O2       0.72650    0.77350    0.16180   1.00
O2       0.66180    0.77350    0.22650   1.00
O2       0.72650    0.83820    0.22650   1.00
O2       0.72650    0.66180    0.27350   1.00
O2       0.66180    0.72650    0.27350   1.00
O2       0.72650    0.72650    0.33820   1.00
O2       0.83820    0.77350    0.27350   1.00
O2       0.77350    0.83820    0.27350   1.00
O2       0.77350    0.77350    0.33820   1.00
C1       0.75000    0.75000    0.14480   1.00
C1       0.75000    0.64480    0.25000   1.00
C1       0.85520    0.75000    0.25000   1.00
C1       0.64480    0.75000    0.25000   1.00
C1       0.75000    0.85520    0.25000   1.00
C1       0.75000    0.75000    0.35520   1.00
O1       0.75000    0.25000    0.75000   1.00
Zn1      0.78280    0.21720    0.71720   1.00
Zn1      0.71720    0.28280    0.71720   1.00
Zn1      0.71720    0.21720    0.78280   1.00
Zn1      0.78280    0.28280    0.78280   1.00
O2       0.77350    0.22650    0.66180   1.00
O2       0.77350    0.16180    0.72650   1.00
O2       0.83820    0.22650    0.72650   1.00
O2       0.72650    0.27350    0.66180   1.00
O2       0.66180    0.27350    0.72650   1.00
O2       0.72650    0.33820    0.72650   1.00
O2       0.72650    0.16180    0.77350   1.00
O2       0.66180    0.22650    0.77350   1.00
O2       0.72650    0.22650    0.83820   1.00
O2       0.83820    0.27350    0.77350   1.00
O2       0.77350    0.33820    0.77350   1.00
O2       0.77350    0.27350    0.83820   1.00
C1       0.75000    0.25000    0.64480   1.00
C1       0.75000    0.14480    0.75000   1.00
C1       0.85520    0.25000    0.75000   1.00
C1       0.64480    0.25000    0.75000   1.00
C1       0.75000    0.35520    0.75000   1.00
C1       0.75000    0.25000    0.85520   1.00
O1       0.25000    0.75000    0.75000   1.00
Zn1      0.28280    0.71720    0.71720   1.00
Zn1      0.21720    0.78280    0.71720   1.00
Zn1      0.21720    0.71720    0.78280   1.00
Zn1      0.28280    0.78280    0.78280   1.00
O2       0.27350    0.72650    0.66180   1.00
O2       0.27350    0.66180    0.72650   1.00
O2       0.33820    0.72650    0.72650   1.00
O2       0.22650    0.77350    0.66180   1.00
O2       0.16180    0.77350    0.72650   1.00
O2       0.22650    0.83820    0.72650   1.00
O2       0.22650    0.66180    0.77350   1.00
O2       0.16180    0.72650    0.77350   1.00
O2       0.22650    0.72650    0.83820   1.00
O2       0.33820    0.77350    0.77350   1.00
O2       0.27350    0.83820    0.77350   1.00
O2       0.27350    0.77350    0.83820   1.00
C1       0.25000    0.75000    0.64480   1.00
C1       0.25000    0.64480    0.75000   1.00
C1       0.35520    0.75000    0.75000   1.00
C1       0.14480    0.75000    0.75000   1.00
C1       0.25000    0.85520    0.75000   1.00
C1       0.25000    0.75000    0.85520   1.00
C5       0.82721    0.85056    1.13218   1.00
H2       0.79993    0.85904    1.14745   1.00
H2       0.83319    0.87427    1.11090   1.00
C5       0.86072    0.84741    1.16194   1.00
C5       0.87768    0.88796    1.17123   1.00
H2       0.88434    0.82849    1.15015   1.00
O3       0.81271    0.71710    0.98000   1.00
C4       0.74958    0.74997    1.02100   1.00
C3c      0.76520    0.78121    1.04243   1.00
H1       0.77747    0.80599    1.02725   1.00
C3d      0.73323    0.71821    1.04135   1.00
C3       0.76579    0.78081    1.08354   1.00
O2       0.77714    0.81435    1.10248   1.00
C3       0.73445    0.71739    1.08227   1.00
H1       0.72281    0.69179    1.09657   1.00
C2       0.75052    0.74854    1.10439   1.00
C5       0.81116    0.67594    0.97879   1.00
H2       0.81251    0.66448    0.94838   1.00
H2       0.78387    0.66483    0.99266   1.00
C5       0.84628    0.66047    1.00129   1.00
H2       0.84553    0.67280    1.03137   1.00
H2       0.87335    0.67144    0.98698   1.00
C5       0.84609    0.61556    1.00262   1.00
H2       0.84656    0.60305    0.97268   1.00
H2       0.81974    0.60461    1.01811   1.00
C5       0.88243    0.60067    1.02445   1.00
C5       0.68075    0.69069    1.01105   1.00
C5       0.81755    0.81281    1.11070   1.00
H2       0.67724    0.71587    0.99088   1.00
H2       0.66184    0.69549    1.03712   1.00
H2       0.83456    0.81091    1.08300   1.00
H2       0.82562    0.78697    1.12895   1.00
H2       0.85024    0.83514    1.19030   1.00
H2       0.63293    0.67965    0.94247   1.00
H2       0.60614    0.67212    0.98763   1.00
C2       0.75091    0.74748    0.89605   1.00
C3       0.71995    0.76596    0.91597   1.00
O2       0.68565    0.77459    0.89674   1.00
C3       0.78198    0.73177    0.91826   1.00
H1       0.80660    0.71834    0.90385   1.00
C3a      0.72017    0.76744    0.95713   1.00
H1       0.69520    0.77970    0.97202   1.00
C3b      0.78151    0.73218    0.95922   1.00
C4       0.75042    0.75003    0.97900   1.00
O3       0.72018    0.68546    1.02167   1.00
C5       0.68435    0.81462    0.88720   1.00
H2       0.68615    0.83321    0.91391   1.00
C5       0.64552    0.82189    0.86674   1.00
H2       0.70877    0.82264    0.86726   1.00
H2       0.62226    0.82416    0.88932   1.00
H2       0.63873    0.79546    0.84907   1.00
C5       0.64597    0.85857    0.84082   1.00
H2       0.65579    0.88410    0.85824   1.00
C5       0.60498    0.86709    0.82453   1.00
H2       0.66565    0.85472    0.81507   1.00
C5       0.66748    0.65372    0.99017   1.00
H2       0.66457    0.62995    1.01215   1.00
H2       0.69092    0.64471    0.96952   1.00
C5       0.62888    0.65982    0.96800   1.00
C5       0.61389    0.62052    0.95225   1.00
H2       0.85783    0.90359    1.19286   1.00
H2       0.90799    0.88453    1.18447   1.00
H2       0.87977    0.90578    1.14323   1.00
H2       0.87889    0.56827    1.03105   1.00
H2       0.90938    0.60525    1.00551   1.00
H2       0.88591    0.61748    1.05293   1.00
H2       0.60763    0.87969    0.79387   1.00
H2       0.58741    0.83888    0.82344   1.00
H2       0.58956    0.88900    0.84423   1.00
H2       0.63732    0.59727    0.95634   1.00
H2       0.58646    0.61166    0.96884   1.00
H2       0.60678    0.62352    0.91990   1.00
C5       0.85056    1.13218    0.82721   1.00
H2       0.85904    1.14745    0.79993   1.00
H2       0.87427    1.11090    0.83319   1.00
C5       0.84741    1.16194    0.86072   1.00
C5       0.88796    1.17123    0.87768   1.00
H2       0.82849    1.15015    0.88434   1.00
O3       0.71710    0.98000    0.81271   1.00
C4       0.74997    1.02100    0.74958   1.00
C3c      0.78121    1.04243    0.76520   1.00
H1       0.80599    1.02725    0.77747   1.00
C3d      0.71821    1.04135    0.73323   1.00
C3       0.78081    1.08354    0.76579   1.00
O2       0.81435    1.10248    0.77714   1.00
C3       0.71739    1.08227    0.73445   1.00
H1       0.69179    1.09657    0.72281   1.00
C2       0.74854    1.10439    0.75052   1.00
C5       0.67594    0.97879    0.81116   1.00
H2       0.66448    0.94838    0.81251   1.00
H2       0.66483    0.99266    0.78387   1.00
C5       0.66047    1.00129    0.84628   1.00
H2       0.67280    1.03137    0.84553   1.00
H2       0.67144    0.98698    0.87335   1.00
C5       0.61556    1.00262    0.84609   1.00
H2       0.60305    0.97268    0.84656   1.00
H2       0.60461    1.01811    0.81974   1.00
C5       0.60067    1.02445    0.88243   1.00
C5       0.69069    1.01105    0.68075   1.00
C5       0.81281    1.11070    0.81755   1.00
H2       0.71587    0.99088    0.67724   1.00
H2       0.69549    1.03712    0.66184   1.00
H2       0.81091    1.08300    0.83456   1.00
H2       0.78697    1.12895    0.82562   1.00
H2       0.83514    1.19030    0.85024   1.00
H2       0.67965    0.94247    0.63293   1.00
H2       0.67212    0.98763    0.60614   1.00
C2       0.74748    0.89605    0.75091   1.00
C3       0.76596    0.91597    0.71995   1.00
O2       0.77459    0.89674    0.68565   1.00
C3       0.73177    0.91826    0.78198   1.00
H1       0.71834    0.90385    0.80660   1.00
C3a      0.76744    0.95713    0.72017   1.00
H1       0.77970    0.97202    0.69520   1.00
C3b      0.73218    0.95922    0.78151   1.00
C4       0.75003    0.97900    0.75042   1.00
O3       0.68546    1.02167    0.72018   1.00
C5       0.81462    0.88720    0.68435   1.00
H2       0.83321    0.91391    0.68615   1.00
C5       0.82189    0.86674    0.64552   1.00
H2       0.82264    0.86726    0.70877   1.00
H2       0.82416    0.88932    0.62226   1.00
H2       0.79546    0.84907    0.63873   1.00
C5       0.85857    0.84082    0.64597   1.00
H2       0.88410    0.85824    0.65579   1.00
C5       0.86709    0.82453    0.60498   1.00
H2       0.85472    0.81507    0.66565   1.00
C5       0.65372    0.99017    0.66748   1.00
H2       0.62995    1.01215    0.66457   1.00
H2       0.64471    0.96952    0.69092   1.00
C5       0.65982    0.96800    0.62888   1.00
C5       0.62052    0.95225    0.61389   1.00
H2       0.90359    1.19286    0.85783   1.00
H2       0.88453    1.18447    0.90799   1.00
H2       0.90578    1.14323    0.87977   1.00
H2       0.56827    1.03105    0.87889   1.00
H2       0.60525    1.00551    0.90938   1.00
H2       0.61748    1.05293    0.88591   1.00
H2       0.87969    0.79387    0.60763   1.00
H2       0.83888    0.82344    0.58741   1.00
H2       0.88900    0.84423    0.58956   1.00
H2       0.59727    0.95634    0.63732   1.00
H2       0.61166    0.96884    0.58646   1.00
H2       0.62352    0.91990    0.60678   1.00
C5       0.36782    0.82721    0.64944   1.00
H2       0.35255    0.79993    0.64096   1.00
H2       0.38910    0.83319    0.62573   1.00
C5       0.33806    0.86072    0.65259   1.00
C5       0.32877    0.87768    0.61204   1.00
H2       0.34985    0.88434    0.67151   1.00
O3       0.52000    0.81271    0.78290   1.00
C4       0.47900    0.74958    0.75003   1.00
C3c      0.45757    0.76520    0.71879   1.00
H1       0.47275    0.77747    0.69401   1.00
C3d      0.45865    0.73323    0.78179   1.00
C3       0.41646    0.76579    0.71919   1.00
O2       0.39752    0.77714    0.68565   1.00
C3       0.41773    0.73445    0.78261   1.00
H1       0.40343    0.72281    0.80821   1.00
C2       0.39561    0.75052    0.75146   1.00
C5       0.52121    0.81116    0.82406   1.00
H2       0.55162    0.81251    0.83552   1.00
H2       0.50734    0.78387    0.83517   1.00
C5       0.49871    0.84628    0.83953   1.00
H2       0.46863    0.84553    0.82720   1.00
H2       0.51302    0.87335    0.82856   1.00
C5       0.49738    0.84609    0.88444   1.00
H2       0.52732    0.84656    0.89695   1.00
H2       0.48189    0.81974    0.89539   1.00
C5       0.47555    0.88243    0.89933   1.00
C5       0.48895    0.68075    0.80931   1.00
C5       0.38930    0.81755    0.68719   1.00
H2       0.50912    0.67724    0.78413   1.00
H2       0.46288    0.66184    0.80451   1.00
H2       0.41700    0.83456    0.68909   1.00
H2       0.37105    0.82562    0.71303   1.00
H2       0.30970    0.85024    0.66486   1.00
H2       0.55753    0.63293    0.82035   1.00
H2       0.51237    0.60614    0.82788   1.00
C2       0.60395    0.75091    0.75252   1.00
C3       0.58403    0.71995    0.73404   1.00
O2       0.60326    0.68565    0.72541   1.00
C3       0.58174    0.78198    0.76823   1.00
H1       0.59615    0.80660    0.78166   1.00
C3a      0.54287    0.72017    0.73256   1.00
H1       0.52798    0.69520    0.72030   1.00
C3b      0.54078    0.78151    0.76782   1.00
C4       0.52100    0.75042    0.74997   1.00
O3       0.47833    0.72018    0.81454   1.00
C5       0.61280    0.68435    0.68538   1.00
H2       0.58609    0.68615    0.66679   1.00
C5       0.63326    0.64552    0.67811   1.00
H2       0.63274    0.70877    0.67736   1.00
H2       0.61068    0.62226    0.67584   1.00
H2       0.65093    0.63873    0.70454   1.00
C5       0.65918    0.64597    0.64143   1.00
H2       0.64176    0.65579    0.61590   1.00
C5       0.67547    0.60498    0.63291   1.00
H2       0.68493    0.66565    0.64528   1.00
C5       0.50983    0.66748    0.84628   1.00
H2       0.48785    0.66457    0.87005   1.00
H2       0.53048    0.69092    0.85529   1.00
C5       0.53200    0.62888    0.84018   1.00
C5       0.54775    0.61389    0.87948   1.00
H2       0.30714    0.85783    0.59641   1.00
H2       0.31553    0.90799    0.61547   1.00
H2       0.35677    0.87977    0.59422   1.00
H2       0.46895    0.87889    0.93173   1.00
H2       0.49449    0.90938    0.89475   1.00
H2       0.44707    0.88591    0.88252   1.00
H2       0.70613    0.60763    0.62031   1.00
H2       0.67656    0.58741    0.66112   1.00
H2       0.65577    0.58956    0.61100   1.00
H2       0.54366    0.63732    0.90273   1.00
H2       0.53116    0.58646    0.88834   1.00
H2       0.58010    0.60678    0.87648   1.00
C5       1.13218    0.82721    0.85056   1.00
H2       1.14745    0.79993    0.85904   1.00
H2       1.11090    0.83319    0.87427   1.00
C5       1.16194    0.86072    0.84741   1.00
C5       1.17123    0.87768    0.88796   1.00
H2       1.15015    0.88434    0.82849   1.00
O3       0.98000    0.81271    0.71710   1.00
C4       1.02100    0.74958    0.74997   1.00
C3c      1.04243    0.76520    0.78121   1.00
H1       1.02725    0.77747    0.80599   1.00
C3d      1.04135    0.73323    0.71821   1.00
C3       1.08354    0.76579    0.78081   1.00
O2       1.10248    0.77714    0.81435   1.00
C3       1.08227    0.73445    0.71739   1.00
H1       1.09657    0.72281    0.69179   1.00
C2       1.10439    0.75052    0.74854   1.00
C5       0.97879    0.81116    0.67594   1.00
H2       0.94838    0.81251    0.66448   1.00
H2       0.99266    0.78387    0.66483   1.00
C5       1.00129    0.84628    0.66047   1.00
H2       1.03137    0.84553    0.67280   1.00
H2       0.98698    0.87335    0.67144   1.00
C5       1.00262    0.84609    0.61556   1.00
H2       0.97268    0.84656    0.60305   1.00
H2       1.01811    0.81974    0.60461   1.00
C5       1.02445    0.88243    0.60067   1.00
C5       1.01105    0.68075    0.69069   1.00
C5       1.11070    0.81755    0.81281   1.00
H2       0.99088    0.67724    0.71587   1.00
H2       1.03712    0.66184    0.69549   1.00
H2       1.08300    0.83456    0.81091   1.00
H2       1.12895    0.82562    0.78697   1.00
H2       1.19030    0.85024    0.83514   1.00
H2       0.94247    0.63293    0.67965   1.00
H2       0.98763    0.60614    0.67212   1.00
C2       0.89605    0.75091    0.74748   1.00
C3       0.91597    0.71995    0.76596   1.00
O2       0.89674    0.68565    0.77459   1.00
C3       0.91826    0.78198    0.73177   1.00
H1       0.90385    0.80660    0.71834   1.00
C3a      0.95713    0.72017    0.76744   1.00
H1       0.97202    0.69520    0.77970   1.00
C3b      0.95922    0.78151    0.73218   1.00
C4       0.97900    0.75042    0.75003   1.00
O3       1.02167    0.72018    0.68546   1.00
C5       0.88720    0.68435    0.81462   1.00
H2       0.91391    0.68615    0.83321   1.00
C5       0.86674    0.64552    0.82189   1.00
H2       0.86726    0.70877    0.82264   1.00
H2       0.88932    0.62226    0.82416   1.00
H2       0.84907    0.63873    0.79546   1.00
C5       0.84082    0.64597    0.85857   1.00
H2       0.85824    0.65579    0.88410   1.00
C5       0.82453    0.60498    0.86709   1.00
H2       0.81507    0.66565    0.85472   1.00
C5       0.99017    0.66748    0.65372   1.00
H2       1.01215    0.66457    0.62995   1.00
H2       0.96952    0.69092    0.64471   1.00
C5       0.96800    0.62888    0.65982   1.00
C5       0.95225    0.61389    0.62052   1.00
H2       1.19286    0.85783    0.90359   1.00
H2       1.18447    0.90799    0.88453   1.00
H2       1.14323    0.87977    0.90578   1.00
H2       1.03105    0.87889    0.56827   1.00
H2       1.00551    0.90938    0.60525   1.00
H2       1.05293    0.88591    0.61748   1.00
H2       0.79387    0.60763    0.87969   1.00
H2       0.82344    0.58741    0.83888   1.00
H2       0.84423    0.58956    0.88900   1.00
H2       0.95634    0.63732    0.59727   1.00
H2       0.96884    0.58646    0.61166   1.00
H2       0.91990    0.60678    0.62352   1.00
C5       0.64944    0.36782    0.82721   1.00
H2       0.64096    0.35255    0.79993   1.00
H2       0.62573    0.38910    0.83319   1.00
C5       0.65259    0.33806    0.86072   1.00
C5       0.61204    0.32877    0.87768   1.00
H2       0.67151    0.34985    0.88434   1.00
O3       0.78290    0.52000    0.81271   1.00
C4       0.75003    0.47900    0.74958   1.00
C3c      0.71879    0.45757    0.76520   1.00
H1       0.69401    0.47275    0.77747   1.00
C3d      0.78179    0.45865    0.73323   1.00
C3       0.71919    0.41646    0.76579   1.00
O2       0.68565    0.39752    0.77714   1.00
C3       0.78261    0.41773    0.73445   1.00
H1       0.80821    0.40343    0.72281   1.00
C2       0.75146    0.39561    0.75052   1.00
C5       0.82406    0.52121    0.81116   1.00
H2       0.83552    0.55162    0.81251   1.00
H2       0.83517    0.50734    0.78387   1.00
C5       0.83953    0.49871    0.84628   1.00
H2       0.82720    0.46863    0.84553   1.00
H2       0.82856    0.51302    0.87335   1.00
C5       0.88444    0.49738    0.84609   1.00
H2       0.89695    0.52732    0.84656   1.00
H2       0.89539    0.48189    0.81974   1.00
C5       0.89933    0.47555    0.88243   1.00
C5       0.80931    0.48895    0.68075   1.00
C5       0.68719    0.38930    0.81755   1.00
H2       0.78413    0.50912    0.67724   1.00
H2       0.80451    0.46288    0.66184   1.00
H2       0.68909    0.41700    0.83456   1.00
H2       0.71303    0.37105    0.82562   1.00
H2       0.66486    0.30970    0.85024   1.00
H2       0.82035    0.55753    0.63293   1.00
H2       0.82788    0.51237    0.60614   1.00
C2       0.75252    0.60395    0.75091   1.00
C3       0.73404    0.58403    0.71995   1.00
O2       0.72541    0.60326    0.68565   1.00
C3       0.76823    0.58174    0.78198   1.00
H1       0.78166    0.59615    0.80660   1.00
C3a      0.73256    0.54287    0.72017   1.00
H1       0.72030    0.52798    0.69520   1.00
C3b      0.76782    0.54078    0.78151   1.00
C4       0.74997    0.52100    0.75042   1.00
O3       0.81454    0.47833    0.72018   1.00
C5       0.68538    0.61280    0.68435   1.00
H2       0.66679    0.58609    0.68615   1.00
C5       0.67811    0.63326    0.64552   1.00
H2       0.67736    0.63274    0.70877   1.00
H2       0.67584    0.61068    0.62226   1.00
H2       0.70454    0.65093    0.63873   1.00
C5       0.64143    0.65918    0.64597   1.00
H2       0.61590    0.64176    0.65579   1.00
C5       0.63291    0.67547    0.60498   1.00
H2       0.64528    0.68493    0.66565   1.00
C5       0.84628    0.50983    0.66748   1.00
H2       0.87005    0.48785    0.66457   1.00
H2       0.85529    0.53048    0.69092   1.00
C5       0.84018    0.53200    0.62888   1.00
C5       0.87948    0.54775    0.61389   1.00
H2       0.59641    0.30714    0.85783   1.00
H2       0.61547    0.31553    0.90799   1.00
H2       0.59422    0.35677    0.87977   1.00
H2       0.93173    0.46895    0.87889   1.00
H2       0.89475    0.49449    0.90938   1.00
H2       0.88252    0.44707    0.88591   1.00
H2       0.62031    0.70613    0.60763   1.00
H2       0.66112    0.67656    0.58741   1.00
H2       0.61100    0.65577    0.58956   1.00
H2       0.90273    0.54366    0.63732   1.00
H2       0.88834    0.53116    0.58646   1.00
H2       0.87648    0.58010    0.60678   1.00
C5       0.82721    0.64944    0.36782   1.00
H2       0.79993    0.64096    0.35255   1.00
H2       0.83319    0.62573    0.38910   1.00
C5       0.86072    0.65259    0.33806   1.00
C5       0.87768    0.61204    0.32877   1.00
H2       0.88434    0.67151    0.34985   1.00
O3       0.81271    0.78290    0.52000   1.00
C4       0.74958    0.75003    0.47900   1.00
C3c      0.76520    0.71879    0.45757   1.00
H1       0.77747    0.69401    0.47275   1.00
C3d      0.73323    0.78179    0.45865   1.00
C3       0.76579    0.71919    0.41646   1.00
O2       0.77714    0.68565    0.39752   1.00
C3       0.73445    0.78261    0.41773   1.00
H1       0.72281    0.80821    0.40343   1.00
C2       0.75052    0.75146    0.39561   1.00
C5       0.81116    0.82406    0.52121   1.00
H2       0.81251    0.83552    0.55162   1.00
H2       0.78387    0.83517    0.50734   1.00
C5       0.84628    0.83953    0.49871   1.00
H2       0.84553    0.82720    0.46863   1.00
H2       0.87335    0.82856    0.51302   1.00
C5       0.84609    0.88444    0.49738   1.00
H2       0.84656    0.89695    0.52732   1.00
H2       0.81974    0.89539    0.48189   1.00
C5       0.88243    0.89933    0.47555   1.00
C5       0.68075    0.80931    0.48895   1.00
C5       0.81755    0.68719    0.38930   1.00
H2       0.67724    0.78413    0.50912   1.00
H2       0.66184    0.80451    0.46288   1.00
H2       0.83456    0.68909    0.41700   1.00
H2       0.82562    0.71303    0.37105   1.00
H2       0.85024    0.66486    0.30970   1.00
H2       0.63293    0.82035    0.55753   1.00
H2       0.60614    0.82788    0.51237   1.00
C2       0.75091    0.75252    0.60395   1.00
C3       0.71995    0.73404    0.58403   1.00
O2       0.68565    0.72541    0.60326   1.00
C3       0.78198    0.76823    0.58174   1.00
H1       0.80660    0.78166    0.59615   1.00
C3a      0.72017    0.73256    0.54287   1.00
H1       0.69520    0.72030    0.52798   1.00
C3b      0.78151    0.76782    0.54078   1.00
C4       0.75042    0.74997    0.52100   1.00
O3       0.72018    0.81454    0.47833   1.00
C5       0.68435    0.68538    0.61280   1.00
H2       0.68615    0.66679    0.58609   1.00
C5       0.64552    0.67811    0.63326   1.00
H2       0.70877    0.67736    0.63274   1.00
H2       0.62226    0.67584    0.61068   1.00
H2       0.63873    0.70454    0.65093   1.00
C5       0.64597    0.64143    0.65918   1.00
H2       0.65579    0.61590    0.64176   1.00
C5       0.60498    0.63291    0.67547   1.00
H2       0.66565    0.64528    0.68493   1.00
C5       0.66748    0.84628    0.50983   1.00
H2       0.66457    0.87005    0.48785   1.00
H2       0.69092    0.85529    0.53048   1.00
C5       0.62888    0.84018    0.53200   1.00
C5       0.61389    0.87948    0.54775   1.00
H2       0.85783    0.59641    0.30714   1.00
H2       0.90799    0.61547    0.31553   1.00
H2       0.87977    0.59422    0.35677   1.00
H2       0.87889    0.93173    0.46895   1.00
H2       0.90938    0.89475    0.49449   1.00
H2       0.88591    0.88252    0.44707   1.00
H2       0.60763    0.62031    0.70613   1.00
H2       0.58741    0.66112    0.67656   1.00
H2       0.58956    0.61100    0.65577   1.00
H2       0.63732    0.90273    0.54366   1.00
H2       0.58646    0.88834    0.53116   1.00
H2       0.60678    0.87648    0.58010   1.00
C5       0.32721    0.35056    1.13218   1.00
H2       0.29993    0.35904    1.14745   1.00
H2       0.33319    0.37427    1.11090   1.00
C5       0.36072    0.34741    1.16194   1.00
C5       0.37768    0.38796    1.17123   1.00
H2       0.38434    0.32849    1.15015   1.00
O3       0.31271    0.21710    0.98000   1.00
C4       0.24958    0.24997    1.02100   1.00
C3c      0.26520    0.28121    1.04243   1.00
H1       0.27747    0.30599    1.02725   1.00
C3d      0.23323    0.21821    1.04135   1.00
C3       0.26579    0.28081    1.08354   1.00
O2       0.27714    0.31435    1.10248   1.00
C3       0.23445    0.21739    1.08227   1.00
H1       0.22281    0.19179    1.09657   1.00
C2       0.25052    0.24854    1.10439   1.00
C5       0.31116    0.17594    0.97879   1.00
H2       0.31251    0.16448    0.94838   1.00
H2       0.28387    0.16483    0.99266   1.00
C5       0.34628    0.16047    1.00129   1.00
H2       0.34553    0.17280    1.03137   1.00
H2       0.37335    0.17144    0.98698   1.00
C5       0.34609    0.11556    1.00262   1.00
H2       0.34656    0.10305    0.97268   1.00
H2       0.31974    0.10461    1.01811   1.00
C5       0.38243    0.10067    1.02445   1.00
C5       0.18075    0.19069    1.01105   1.00
C5       0.31755    0.31281    1.11070   1.00
H2       0.17724    0.21587    0.99088   1.00
H2       0.16184    0.19549    1.03712   1.00
H2       0.33456    0.31091    1.08300   1.00
H2       0.32562    0.28697    1.12895   1.00
H2       0.35024    0.33514    1.19030   1.00
H2       0.13293    0.17965    0.94247   1.00
H2       0.10614    0.17212    0.98763   1.00
C2       0.25091    0.24748    0.89605   1.00
C3       0.21995    0.26596    0.91597   1.00
O2       0.18565    0.27459    0.89674   1.00
C3       0.28198    0.23177    0.91826   1.00
H1       0.30660    0.21834    0.90385   1.00
C3a      0.22017    0.26744    0.95713   1.00
H1       0.19520    0.27970    0.97202   1.00
C3b      0.28151    0.23218    0.95922   1.00
C4       0.25042    0.25003    0.97900   1.00
O3       0.22018    0.18546    1.02167   1.00
C5       0.18435    0.31462    0.88720   1.00
H2       0.18615    0.33321    0.91391   1.00
C5       0.14552    0.32189    0.86674   1.00
H2       0.20877    0.32264    0.86726   1.00
H2       0.12226    0.32416    0.88932   1.00
H2       0.13873    0.29546    0.84907   1.00
C5       0.14597    0.35857    0.84082   1.00
H2       0.15579    0.38410    0.85824   1.00
C5       0.10498    0.36709    0.82453   1.00
H2       0.16565    0.35472    0.81507   1.00
C5       0.16748    0.15372    0.99017   1.00
H2       0.16457    0.12995    1.01215   1.00
H2       0.19092    0.14471    0.96952   1.00
C5       0.12888    0.15982    0.96800   1.00
C5       0.11389    0.12052    0.95225   1.00
H2       0.35783    0.40359    1.19286   1.00
H2       0.40799    0.38453    1.18447   1.00
H2       0.37977    0.40578    1.14323   1.00
H2       0.37889    0.06827    1.03105   1.00
H2       0.40938    0.10525    1.00551   1.00
H2       0.38591    0.11748    1.05293   1.00
H2       0.10763    0.37969    0.79387   1.00
H2       0.08741    0.33888    0.82344   1.00
H2       0.08956    0.38900    0.84423   1.00
H2       0.13732    0.09727    0.95634   1.00
H2       0.08646    0.11166    0.96884   1.00
H2       0.10678    0.12352    0.91990   1.00
C5       0.35056    0.63218    0.82721   1.00
H2       0.35904    0.64745    0.79993   1.00
H2       0.37427    0.61090    0.83319   1.00
C5       0.34741    0.66194    0.86072   1.00
C5       0.38796    0.67123    0.87768   1.00
H2       0.32849    0.65015    0.88434   1.00
O3       0.21710    0.48000    0.81271   1.00
C4       0.24997    0.52100    0.74958   1.00
C3c      0.28121    0.54243    0.76520   1.00
H1       0.30599    0.52725    0.77747   1.00
C3d      0.21821    0.54135    0.73323   1.00
C3       0.28081    0.58354    0.76579   1.00
O2       0.31435    0.60248    0.77714   1.00
C3       0.21739    0.58227    0.73445   1.00
H1       0.19179    0.59657    0.72281   1.00
C2       0.24854    0.60439    0.75052   1.00
C5       0.17594    0.47879    0.81116   1.00
H2       0.16448    0.44838    0.81251   1.00
H2       0.16483    0.49266    0.78387   1.00
C5       0.16047    0.50129    0.84628   1.00
H2       0.17280    0.53137    0.84553   1.00
H2       0.17144    0.48698    0.87335   1.00
C5       0.11556    0.50262    0.84609   1.00
H2       0.10305    0.47268    0.84656   1.00
H2       0.10461    0.51811    0.81974   1.00
C5       0.10067    0.52445    0.88243   1.00
C5       0.19069    0.51105    0.68075   1.00
C5       0.31281    0.61070    0.81755   1.00
H2       0.21587    0.49088    0.67724   1.00
H2       0.19549    0.53712    0.66184   1.00
H2       0.31091    0.58300    0.83456   1.00
H2       0.28697    0.62895    0.82562   1.00
H2       0.33514    0.69030    0.85024   1.00
H2       0.17965    0.44247    0.63293   1.00
H2       0.17212    0.48763    0.60614   1.00
C2       0.24748    0.39605    0.75091   1.00
C3       0.26596    0.41597    0.71995   1.00
O2       0.27459    0.39674    0.68565   1.00
C3       0.23177    0.41826    0.78198   1.00
H1       0.21834    0.40385    0.80660   1.00
C3a      0.26744    0.45713    0.72017   1.00
H1       0.27970    0.47202    0.69520   1.00
C3b      0.23218    0.45922    0.78151   1.00
C4       0.25003    0.47900    0.75042   1.00
O3       0.18546    0.52167    0.72018   1.00
C5       0.31462    0.38720    0.68435   1.00
H2       0.33321    0.41391    0.68615   1.00
C5       0.32189    0.36674    0.64552   1.00
H2       0.32264    0.36726    0.70877   1.00
H2       0.32416    0.38932    0.62226   1.00
H2       0.29546    0.34907    0.63873   1.00
C5       0.35857    0.34082    0.64597   1.00
H2       0.38410    0.35824    0.65579   1.00
C5       0.36709    0.32453    0.60498   1.00
H2       0.35472    0.31507    0.66565   1.00
C5       0.15372    0.49017    0.66748   1.00
H2       0.12995    0.51215    0.66457   1.00
H2       0.14471    0.46952    0.69092   1.00
C5       0.15982    0.46800    0.62888   1.00
C5       0.12052    0.45225    0.61389   1.00
H2       0.40359    0.69286    0.85783   1.00
H2       0.38453    0.68447    0.90799   1.00
H2       0.40578    0.64323    0.87977   1.00
H2       0.06827    0.53105    0.87889   1.00
H2       0.10525    0.50551    0.90938   1.00
H2       0.11748    0.55293    0.88591   1.00
H2       0.37969    0.29387    0.60763   1.00
H2       0.33888    0.32344    0.58741   1.00
H2       0.38900    0.34423    0.58956   1.00
H2       0.09727    0.45634    0.63732   1.00
H2       0.11166    0.46884    0.58646   1.00
H2       0.12352    0.41990    0.60678   1.00
C5       -0.13218   0.32721    0.64944   1.00
H2       -0.14745   0.29993    0.64096   1.00
H2       -0.11090   0.33319    0.62573   1.00
C5       -0.16194   0.36072    0.65259   1.00
C5       -0.17123   0.37768    0.61204   1.00
H2       -0.15015   0.38434    0.67151   1.00
O3       0.02000    0.31271    0.78290   1.00
C4       -0.02100   0.24958    0.75003   1.00
C3c      -0.04243   0.26520    0.71879   1.00
H1       -0.02725   0.27747    0.69401   1.00
C3d      -0.04135   0.23323    0.78179   1.00
C3       -0.08354   0.26579    0.71919   1.00
O2       -0.10248   0.27714    0.68565   1.00
C3       -0.08227   0.23445    0.78261   1.00
H1       -0.09657   0.22281    0.80821   1.00
C2       -0.10439   0.25052    0.75146   1.00
C5       0.02121    0.31116    0.82406   1.00
H2       0.05162    0.31251    0.83552   1.00
H2       0.00734    0.28387    0.83517   1.00
C5       -0.00129   0.34628    0.83953   1.00
H2       -0.03137   0.34553    0.82720   1.00
H2       0.01302    0.37335    0.82856   1.00
C5       -0.00262   0.34609    0.88444   1.00
H2       0.02732    0.34656    0.89695   1.00
H2       -0.01811   0.31974    0.89539   1.00
C5       -0.02445   0.38243    0.89933   1.00
C5       -0.01105   0.18075    0.80931   1.00
C5       -0.11070   0.31755    0.68719   1.00
H2       0.00912    0.17724    0.78413   1.00
H2       -0.03712   0.16184    0.80451   1.00
H2       -0.08300   0.33456    0.68909   1.00
H2       -0.12895   0.32562    0.71303   1.00
H2       -0.19030   0.35024    0.66486   1.00
H2       0.05753    0.13293    0.82035   1.00
H2       0.01237    0.10614    0.82788   1.00
C2       0.10395    0.25091    0.75252   1.00
C3       0.08403    0.21995    0.73404   1.00
O2       0.10326    0.18565    0.72541   1.00
C3       0.08174    0.28198    0.76823   1.00
H1       0.09615    0.30660    0.78166   1.00
C3a      0.04287    0.22017    0.73256   1.00
H1       0.02798    0.19520    0.72030   1.00
C3b      0.04078    0.28151    0.76782   1.00
C4       0.02100    0.25042    0.74997   1.00
O3       -0.02167   0.22018    0.81454   1.00
C5       0.11280    0.18435    0.68538   1.00
H2       0.08609    0.18615    0.66679   1.00
C5       0.13326    0.14552    0.67811   1.00
H2       0.13274    0.20877    0.67736   1.00
H2       0.11068    0.12226    0.67584   1.00
H2       0.15093    0.13873    0.70454   1.00
C5       0.15918    0.14597    0.64143   1.00
H2       0.14176    0.15579    0.61590   1.00
C5       0.17547    0.10498    0.63291   1.00
H2       0.18493    0.16565    0.64528   1.00
C5       0.00983    0.16748    0.84628   1.00
H2       -0.01215   0.16457    0.87005   1.00
H2       0.03048    0.19092    0.85529   1.00
C5       0.03200    0.12888    0.84018   1.00
C5       0.04775    0.11389    0.87948   1.00
H2       -0.19286   0.35783    0.59641   1.00
H2       -0.18447   0.40799    0.61547   1.00
H2       -0.14323   0.37977    0.59422   1.00
H2       -0.03105   0.37889    0.93173   1.00
H2       -0.00551   0.40938    0.89475   1.00
H2       -0.05293   0.38591    0.88252   1.00
H2       0.20613    0.10763    0.62031   1.00
H2       0.17656    0.08741    0.66112   1.00
H2       0.15577    0.08956    0.61100   1.00
H2       0.04366    0.13732    0.90273   1.00
H2       0.03116    0.08646    0.88834   1.00
H2       0.08010    0.10678    0.87648   1.00
C5       0.63218    0.32721    0.85056   1.00
H2       0.64745    0.29993    0.85904   1.00
H2       0.61090    0.33319    0.87427   1.00
C5       0.66194    0.36072    0.84741   1.00
C5       0.67123    0.37768    0.88796   1.00
H2       0.65015    0.38434    0.82849   1.00
O3       0.48000    0.31271    0.71710   1.00
C4       0.52100    0.24958    0.74997   1.00
C3c      0.54243    0.26520    0.78121   1.00
H1       0.52725    0.27747    0.80599   1.00
C3d      0.54135    0.23323    0.71821   1.00
C3       0.58354    0.26579    0.78081   1.00
O2       0.60248    0.27714    0.81435   1.00
C3       0.58227    0.23445    0.71739   1.00
H1       0.59657    0.22281    0.69179   1.00
C2       0.60439    0.25052    0.74854   1.00
C5       0.47879    0.31116    0.67594   1.00
H2       0.44838    0.31251    0.66448   1.00
H2       0.49266    0.28387    0.66483   1.00
C5       0.50129    0.34628    0.66047   1.00
H2       0.53137    0.34553    0.67280   1.00
H2       0.48698    0.37335    0.67144   1.00
C5       0.50262    0.34609    0.61556   1.00
H2       0.47268    0.34656    0.60305   1.00
H2       0.51811    0.31974    0.60461   1.00
C5       0.52445    0.38243    0.60067   1.00
C5       0.51105    0.18075    0.69069   1.00
C5       0.61070    0.31755    0.81281   1.00
H2       0.49088    0.17724    0.71587   1.00
H2       0.53712    0.16184    0.69549   1.00
H2       0.58300    0.33456    0.81091   1.00
H2       0.62895    0.32562    0.78697   1.00
H2       0.69030    0.35024    0.83514   1.00
H2       0.44247    0.13293    0.67965   1.00
H2       0.48763    0.10614    0.67212   1.00
C2       0.39605    0.25091    0.74748   1.00
C3       0.41597    0.21995    0.76596   1.00
O2       0.39674    0.18565    0.77459   1.00
C3       0.41826    0.28198    0.73177   1.00
H1       0.40385    0.30660    0.71834   1.00
C3a      0.45713    0.22017    0.76744   1.00
H1       0.47202    0.19520    0.77970   1.00
C3b      0.45922    0.28151    0.73218   1.00
C4       0.47900    0.25042    0.75003   1.00
O3       0.52167    0.22018    0.68546   1.00
C5       0.38720    0.18435    0.81462   1.00
H2       0.41391    0.18615    0.83321   1.00
C5       0.36674    0.14552    0.82189   1.00
H2       0.36726    0.20877    0.82264   1.00
H2       0.38932    0.12226    0.82416   1.00
H2       0.34907    0.13873    0.79546   1.00
C5       0.34082    0.14597    0.85857   1.00
H2       0.35824    0.15579    0.88410   1.00
C5       0.32453    0.10498    0.86709   1.00
H2       0.31507    0.16565    0.85472   1.00
C5       0.49017    0.16748    0.65372   1.00
H2       0.51215    0.16457    0.62995   1.00
H2       0.46952    0.19092    0.64471   1.00
C5       0.46800    0.12888    0.65982   1.00
C5       0.45225    0.11389    0.62052   1.00
H2       0.69286    0.35783    0.90359   1.00
H2       0.68447    0.40799    0.88453   1.00
H2       0.64323    0.37977    0.90578   1.00
H2       0.53105    0.37889    0.56827   1.00
H2       0.50551    0.40938    0.60525   1.00
H2       0.55293    0.38591    0.61748   1.00
H2       0.29387    0.10763    0.87969   1.00
H2       0.32344    0.08741    0.83888   1.00
H2       0.34423    0.08956    0.88900   1.00
H2       0.45634    0.13732    0.59727   1.00
H2       0.46884    0.08646    0.61166   1.00
H2       0.41990    0.10678    0.62352   1.00
C5       0.14944    -0.13218   0.82721   1.00
H2       0.14096    -0.14745   0.79993   1.00
H2       0.12573    -0.11090   0.83319   1.00
C5       0.15259    -0.16194   0.86072   1.00
C5       0.11204    -0.17123   0.87768   1.00
H2       0.17151    -0.15015   0.88434   1.00
O3       0.28290    0.02000    0.81271   1.00
C4       0.25003    -0.02100   0.74958   1.00
C3c      0.21879    -0.04243   0.76520   1.00
H1       0.19401    -0.02725   0.77747   1.00
C3d      0.28179    -0.04135   0.73323   1.00
C3       0.21919    -0.08354   0.76579   1.00
O2       0.18565    -0.10248   0.77714   1.00
C3       0.28261    -0.08227   0.73445   1.00
H1       0.30821    -0.09657   0.72281   1.00
C2       0.25146    -0.10439   0.75052   1.00
C5       0.32406    0.02121    0.81116   1.00
H2       0.33552    0.05162    0.81251   1.00
H2       0.33517    0.00734    0.78387   1.00
C5       0.33953    -0.00129   0.84628   1.00
H2       0.32720    -0.03137   0.84553   1.00
H2       0.32856    0.01302    0.87335   1.00
C5       0.38444    -0.00262   0.84609   1.00
H2       0.39695    0.02732    0.84656   1.00
H2       0.39539    -0.01811   0.81974   1.00
C5       0.39933    -0.02445   0.88243   1.00
C5       0.30931    -0.01105   0.68075   1.00
C5       0.18719    -0.11070   0.81755   1.00
H2       0.28413    0.00912    0.67724   1.00
H2       0.30451    -0.03712   0.66184   1.00
H2       0.18909    -0.08300   0.83456   1.00
H2       0.21303    -0.12895   0.82562   1.00
H2       0.16486    -0.19030   0.85024   1.00
H2       0.32035    0.05753    0.63293   1.00
H2       0.32788    0.01237    0.60614   1.00
C2       0.25252    0.10395    0.75091   1.00
C3       0.23404    0.08403    0.71995   1.00
O2       0.22541    0.10326    0.68565   1.00
C3       0.26823    0.08174    0.78198   1.00
H1       0.28166    0.09615    0.80660   1.00
C3a      0.23256    0.04287    0.72017   1.00
H1       0.22030    0.02798    0.69520   1.00
C3b      0.26782    0.04078    0.78151   1.00
C4       0.24997    0.02100    0.75042   1.00
O3       0.31454    -0.02167   0.72018   1.00
C5       0.18538    0.11280    0.68435   1.00
H2       0.16679    0.08609    0.68615   1.00
C5       0.17811    0.13326    0.64552   1.00
H2       0.17736    0.13274    0.70877   1.00
H2       0.17584    0.11068    0.62226   1.00
H2       0.20454    0.15093    0.63873   1.00
C5       0.14143    0.15918    0.64597   1.00
H2       0.11590    0.14176    0.65579   1.00
C5       0.13291    0.17547    0.60498   1.00
H2       0.14528    0.18493    0.66565   1.00
C5       0.34628    0.00983    0.66748   1.00
H2       0.37005    -0.01215   0.66457   1.00
H2       0.35529    0.03048    0.69092   1.00
C5       0.34018    0.03200    0.62888   1.00
C5       0.37948    0.04775    0.61389   1.00
H2       0.09641    -0.19286   0.85783   1.00
H2       0.11547    -0.18447   0.90799   1.00
H2       0.09422    -0.14323   0.87977   1.00
H2       0.43173    -0.03105   0.87889   1.00
H2       0.39475    -0.00551   0.90938   1.00
H2       0.38252    -0.05293   0.88591   1.00
H2       0.12031    0.20613    0.60763   1.00
H2       0.16112    0.17656    0.58741   1.00
H2       0.11100    0.15577    0.58956   1.00
H2       0.40273    0.04366    0.63732   1.00
H2       0.38834    0.03116    0.58646   1.00
H2       0.37648    0.08010    0.60678   1.00
C5       0.32721    0.14944    0.36782   1.00
H2       0.29993    0.14096    0.35255   1.00
H2       0.33319    0.12573    0.38910   1.00
C5       0.36072    0.15259    0.33806   1.00
C5       0.37768    0.11204    0.32877   1.00
H2       0.38434    0.17151    0.34985   1.00
O3       0.31271    0.28290    0.52000   1.00
C4       0.24958    0.25003    0.47900   1.00
C3c      0.26520    0.21879    0.45757   1.00
H1       0.27747    0.19401    0.47275   1.00
C3d      0.23323    0.28179    0.45865   1.00
C3       0.26579    0.21919    0.41646   1.00
O2       0.27714    0.18565    0.39752   1.00
C3       0.23445    0.28261    0.41773   1.00
H1       0.22281    0.30821    0.40343   1.00
C2       0.25052    0.25146    0.39561   1.00
C5       0.31116    0.32406    0.52121   1.00
H2       0.31251    0.33552    0.55162   1.00
H2       0.28387    0.33517    0.50734   1.00
C5       0.34628    0.33953    0.49871   1.00
H2       0.34553    0.32720    0.46863   1.00
H2       0.37335    0.32856    0.51302   1.00
C5       0.34609    0.38444    0.49738   1.00
H2       0.34656    0.39695    0.52732   1.00
H2       0.31974    0.39539    0.48189   1.00
C5       0.38243    0.39933    0.47555   1.00
C5       0.18075    0.30931    0.48895   1.00
C5       0.31755    0.18719    0.38930   1.00
H2       0.17724    0.28413    0.50912   1.00
H2       0.16184    0.30451    0.46288   1.00
H2       0.33456    0.18909    0.41700   1.00
H2       0.32562    0.21303    0.37105   1.00
H2       0.35024    0.16486    0.30970   1.00
H2       0.13293    0.32035    0.55753   1.00
H2       0.10614    0.32788    0.51237   1.00
C2       0.25091    0.25252    0.60395   1.00
C3       0.21995    0.23404    0.58403   1.00
O2       0.18565    0.22541    0.60326   1.00
C3       0.28198    0.26823    0.58174   1.00
H1       0.30660    0.28166    0.59615   1.00
C3a      0.22017    0.23256    0.54287   1.00
H1       0.19520    0.22030    0.52798   1.00
C3b      0.28151    0.26782    0.54078   1.00
C4       0.25042    0.24997    0.52100   1.00
O3       0.22018    0.31454    0.47833   1.00
C5       0.18435    0.18538    0.61280   1.00
H2       0.18615    0.16679    0.58609   1.00
C5       0.14552    0.17811    0.63326   1.00
H2       0.20877    0.17736    0.63274   1.00
H2       0.12226    0.17584    0.61068   1.00
H2       0.13873    0.20454    0.65093   1.00
C5       0.14597    0.14143    0.65918   1.00
H2       0.15579    0.11590    0.64176   1.00
C5       0.10498    0.13291    0.67547   1.00
H2       0.16565    0.14528    0.68493   1.00
C5       0.16748    0.34628    0.50983   1.00
H2       0.16457    0.37005    0.48785   1.00
H2       0.19092    0.35529    0.53048   1.00
C5       0.12888    0.34018    0.53200   1.00
C5       0.11389    0.37948    0.54775   1.00
H2       0.35783    0.09641    0.30714   1.00
H2       0.40799    0.11547    0.31553   1.00
H2       0.37977    0.09422    0.35677   1.00
H2       0.37889    0.43173    0.46895   1.00
H2       0.40938    0.39475    0.49449   1.00
H2       0.38591    0.38252    0.44707   1.00
H2       0.10763    0.12031    0.70613   1.00
H2       0.08741    0.16112    0.67656   1.00
H2       0.08956    0.11100    0.65577   1.00
H2       0.13732    0.40273    0.54366   1.00
H2       0.08646    0.38834    0.53116   1.00
H2       0.10678    0.37648    0.58010   1.00
C5       0.32721    0.85056    0.63218   1.00
H2       0.29993    0.85904    0.64745   1.00
H2       0.33319    0.87427    0.61090   1.00
C5       0.36072    0.84741    0.66194   1.00
C5       0.37768    0.88796    0.67123   1.00
H2       0.38434    0.82849    0.65015   1.00
O3       0.31271    0.71710    0.48000   1.00
C4       0.24958    0.74997    0.52100   1.00
C3c      0.26520    0.78121    0.54243   1.00
H1       0.27747    0.80599    0.52725   1.00
C3d      0.23323    0.71821    0.54135   1.00
C3       0.26579    0.78081    0.58354   1.00
O2       0.27714    0.81435    0.60248   1.00
C3       0.23445    0.71739    0.58227   1.00
H1       0.22281    0.69179    0.59657   1.00
C2       0.25052    0.74854    0.60439   1.00
C5       0.31116    0.67594    0.47879   1.00
H2       0.31251    0.66448    0.44838   1.00
H2       0.28387    0.66483    0.49266   1.00
C5       0.34628    0.66047    0.50129   1.00
H2       0.34553    0.67280    0.53137   1.00
H2       0.37335    0.67144    0.48698   1.00
C5       0.34609    0.61556    0.50262   1.00
H2       0.34656    0.60305    0.47268   1.00
H2       0.31974    0.60461    0.51811   1.00
C5       0.38243    0.60067    0.52445   1.00
C5       0.18075    0.69069    0.51105   1.00
C5       0.31755    0.81281    0.61070   1.00
H2       0.17724    0.71587    0.49088   1.00
H2       0.16184    0.69549    0.53712   1.00
H2       0.33456    0.81091    0.58300   1.00
H2       0.32562    0.78697    0.62895   1.00
H2       0.35024    0.83514    0.69030   1.00
H2       0.13293    0.67965    0.44247   1.00
H2       0.10614    0.67212    0.48763   1.00
C2       0.25091    0.74748    0.39605   1.00
C3       0.21995    0.76596    0.41597   1.00
O2       0.18565    0.77459    0.39674   1.00
C3       0.28198    0.73177    0.41826   1.00
H1       0.30660    0.71834    0.40385   1.00
C3a      0.22017    0.76744    0.45713   1.00
H1       0.19520    0.77970    0.47202   1.00
C3b      0.28151    0.73218    0.45922   1.00
C4       0.25042    0.75003    0.47900   1.00
O3       0.22018    0.68546    0.52167   1.00
C5       0.18435    0.81462    0.38720   1.00
H2       0.18615    0.83321    0.41391   1.00
C5       0.14552    0.82189    0.36674   1.00
H2       0.20877    0.82264    0.36726   1.00
H2       0.12226    0.82416    0.38932   1.00
H2       0.13873    0.79546    0.34907   1.00
C5       0.14597    0.85857    0.34082   1.00
H2       0.15579    0.88410    0.35824   1.00
C5       0.10498    0.86709    0.32453   1.00
H2       0.16565    0.85472    0.31507   1.00
C5       0.16748    0.65372    0.49017   1.00
H2       0.16457    0.62995    0.51215   1.00
H2       0.19092    0.64471    0.46952   1.00
C5       0.12888    0.65982    0.46800   1.00
C5       0.11389    0.62052    0.45225   1.00
H2       0.35783    0.90359    0.69286   1.00
H2       0.40799    0.88453    0.68447   1.00
H2       0.37977    0.90578    0.64323   1.00
H2       0.37889    0.56827    0.53105   1.00
H2       0.40938    0.60525    0.50551   1.00
H2       0.38591    0.61748    0.55293   1.00
H2       0.10763    0.87969    0.29387   1.00
H2       0.08741    0.83888    0.32344   1.00
H2       0.08956    0.88900    0.34423   1.00
H2       0.13732    0.59727    0.45634   1.00
H2       0.08646    0.61166    0.46884   1.00
H2       0.10678    0.62352    0.41990   1.00
C5       0.35056    1.13218    0.32721   1.00
H2       0.35904    1.14745    0.29993   1.00
H2       0.37427    1.11090    0.33319   1.00
C5       0.34741    1.16194    0.36072   1.00
C5       0.38796    1.17123    0.37768   1.00
H2       0.32849    1.15015    0.38434   1.00
O3       0.21710    0.98000    0.31271   1.00
C4       0.24997    1.02100    0.24958   1.00
C3c      0.28121    1.04243    0.26520   1.00
H1       0.30599    1.02725    0.27747   1.00
C3d      0.21821    1.04135    0.23323   1.00
C3       0.28081    1.08354    0.26579   1.00
O2       0.31435    1.10248    0.27714   1.00
C3       0.21739    1.08227    0.23445   1.00
H1       0.19179    1.09657    0.22281   1.00
C2       0.24854    1.10439    0.25052   1.00
C5       0.17594    0.97879    0.31116   1.00
H2       0.16448    0.94838    0.31251   1.00
H2       0.16483    0.99266    0.28387   1.00
C5       0.16047    1.00129    0.34628   1.00
H2       0.17280    1.03137    0.34553   1.00
H2       0.17144    0.98698    0.37335   1.00
C5       0.11556    1.00262    0.34609   1.00
H2       0.10305    0.97268    0.34656   1.00
H2       0.10461    1.01811    0.31974   1.00
C5       0.10067    1.02445    0.38243   1.00
C5       0.19069    1.01105    0.18075   1.00
C5       0.31281    1.11070    0.31755   1.00
H2       0.21587    0.99088    0.17724   1.00
H2       0.19549    1.03712    0.16184   1.00
H2       0.31091    1.08300    0.33456   1.00
H2       0.28697    1.12895    0.32562   1.00
H2       0.33514    1.19030    0.35024   1.00
H2       0.17965    0.94247    0.13293   1.00
H2       0.17212    0.98763    0.10614   1.00
C2       0.24748    0.89605    0.25091   1.00
C3       0.26596    0.91597    0.21995   1.00
O2       0.27459    0.89674    0.18565   1.00
C3       0.23177    0.91826    0.28198   1.00
H1       0.21834    0.90385    0.30660   1.00
C3a      0.26744    0.95713    0.22017   1.00
H1       0.27970    0.97202    0.19520   1.00
C3b      0.23218    0.95922    0.28151   1.00
C4       0.25003    0.97900    0.25042   1.00
O3       0.18546    1.02167    0.22018   1.00
C5       0.31462    0.88720    0.18435   1.00
H2       0.33321    0.91391    0.18615   1.00
C5       0.32189    0.86674    0.14552   1.00
H2       0.32264    0.86726    0.20877   1.00
H2       0.32416    0.88932    0.12226   1.00
H2       0.29546    0.84907    0.13873   1.00
C5       0.35857    0.84082    0.14597   1.00
H2       0.38410    0.85824    0.15579   1.00
C5       0.36709    0.82453    0.10498   1.00
H2       0.35472    0.81507    0.16565   1.00
C5       0.15372    0.99017    0.16748   1.00
H2       0.12995    1.01215    0.16457   1.00
H2       0.14471    0.96952    0.19092   1.00
C5       0.15982    0.96800    0.12888   1.00
C5       0.12052    0.95225    0.11389   1.00
H2       0.40359    1.19286    0.35783   1.00
H2       0.38453    1.18447    0.40799   1.00
H2       0.40578    1.14323    0.37977   1.00
H2       0.06827    1.03105    0.37889   1.00
H2       0.10525    1.00551    0.40938   1.00
H2       0.11748    1.05293    0.38591   1.00
H2       0.37969    0.79387    0.10763   1.00
H2       0.33888    0.82344    0.08741   1.00
H2       0.38900    0.84423    0.08956   1.00
H2       0.09727    0.95634    0.13732   1.00
H2       0.11166    0.96884    0.08646   1.00
H2       0.12352    0.91990    0.10678   1.00
C5       -0.13218   0.82721    0.14944   1.00
H2       -0.14745   0.79993    0.14096   1.00
H2       -0.11090   0.83319    0.12573   1.00
C5       -0.16194   0.86072    0.15259   1.00
C5       -0.17123   0.87768    0.11204   1.00
H2       -0.15015   0.88434    0.17151   1.00
O3       0.02000    0.81271    0.28290   1.00
C4       -0.02100   0.74958    0.25003   1.00
C3c      -0.04243   0.76520    0.21879   1.00
H1       -0.02725   0.77747    0.19401   1.00
C3d      -0.04135   0.73323    0.28179   1.00
C3       -0.08354   0.76579    0.21919   1.00
O2       -0.10248   0.77714    0.18565   1.00
C3       -0.08227   0.73445    0.28261   1.00
H1       -0.09657   0.72281    0.30821   1.00
C2       -0.10439   0.75052    0.25146   1.00
C5       0.02121    0.81116    0.32406   1.00
H2       0.05162    0.81251    0.33552   1.00
H2       0.00734    0.78387    0.33517   1.00
C5       -0.00129   0.84628    0.33953   1.00
H2       -0.03137   0.84553    0.32720   1.00
H2       0.01302    0.87335    0.32856   1.00
C5       -0.00262   0.84609    0.38444   1.00
H2       0.02732    0.84656    0.39695   1.00
H2       -0.01811   0.81974    0.39539   1.00
C5       -0.02445   0.88243    0.39933   1.00
C5       -0.01105   0.68075    0.30931   1.00
C5       -0.11070   0.81755    0.18719   1.00
H2       0.00912    0.67724    0.28413   1.00
H2       -0.03712   0.66184    0.30451   1.00
H2       -0.08300   0.83456    0.18909   1.00
H2       -0.12895   0.82562    0.21303   1.00
H2       -0.19030   0.85024    0.16486   1.00
H2       0.05753    0.63293    0.32035   1.00
H2       0.01237    0.60614    0.32788   1.00
C2       0.10395    0.75091    0.25252   1.00
C3       0.08403    0.71995    0.23404   1.00
O2       0.10326    0.68565    0.22541   1.00
C3       0.08174    0.78198    0.26823   1.00
H1       0.09615    0.80660    0.28166   1.00
C3a      0.04287    0.72017    0.23256   1.00
H1       0.02798    0.69520    0.22030   1.00
C3b      0.04078    0.78151    0.26782   1.00
C4       0.02100    0.75042    0.24997   1.00
O3       -0.02167   0.72018    0.31454   1.00
C5       0.11280    0.68435    0.18538   1.00
H2       0.08609    0.68615    0.16679   1.00
C5       0.13326    0.64552    0.17811   1.00
H2       0.13274    0.70877    0.17736   1.00
H2       0.11068    0.62226    0.17584   1.00
H2       0.15093    0.63873    0.20454   1.00
C5       0.15918    0.64597    0.14143   1.00
H2       0.14176    0.65579    0.11590   1.00
C5       0.17547    0.60498    0.13291   1.00
H2       0.18493    0.66565    0.14528   1.00
C5       0.00983    0.66748    0.34628   1.00
H2       -0.01215   0.66457    0.37005   1.00
H2       0.03048    0.69092    0.35529   1.00
C5       0.03200    0.62888    0.34018   1.00
C5       0.04775    0.61389    0.37948   1.00
H2       -0.19286   0.85783    0.09641   1.00
H2       -0.18447   0.90799    0.11547   1.00
H2       -0.14323   0.87977    0.09422   1.00
H2       -0.03105   0.87889    0.43173   1.00
H2       -0.00551   0.90938    0.39475   1.00
H2       -0.05293   0.88591    0.38252   1.00
H2       0.20613    0.60763    0.12031   1.00
H2       0.17656    0.58741    0.16112   1.00
H2       0.15577    0.58956    0.11100   1.00
H2       0.04366    0.63732    0.40273   1.00
H2       0.03116    0.58646    0.38834   1.00
H2       0.08010    0.60678    0.37648   1.00
C5       0.63218    0.82721    0.35056   1.00
H2       0.64745    0.79993    0.35904   1.00
H2       0.61090    0.83319    0.37427   1.00
C5       0.66194    0.86072    0.34741   1.00
C5       0.67123    0.87768    0.38796   1.00
H2       0.65015    0.88434    0.32849   1.00
O3       0.48000    0.81271    0.21710   1.00
C4       0.52100    0.74958    0.24997   1.00
C3c      0.54243    0.76520    0.28121   1.00
H1       0.52725    0.77747    0.30599   1.00
C3d      0.54135    0.73323    0.21821   1.00
C3       0.58354    0.76579    0.28081   1.00
O2       0.60248    0.77714    0.31435   1.00
C3       0.58227    0.73445    0.21739   1.00
H1       0.59657    0.72281    0.19179   1.00
C2       0.60439    0.75052    0.24854   1.00
C5       0.47879    0.81116    0.17594   1.00
H2       0.44838    0.81251    0.16448   1.00
H2       0.49266    0.78387    0.16483   1.00
C5       0.50129    0.84628    0.16047   1.00
H2       0.53137    0.84553    0.17280   1.00
H2       0.48698    0.87335    0.17144   1.00
C5       0.50262    0.84609    0.11556   1.00
H2       0.47268    0.84656    0.10305   1.00
H2       0.51811    0.81974    0.10461   1.00
C5       0.52445    0.88243    0.10067   1.00
C5       0.51105    0.68075    0.19069   1.00
C5       0.61070    0.81755    0.31281   1.00
H2       0.49088    0.67724    0.21587   1.00
H2       0.53712    0.66184    0.19549   1.00
H2       0.58300    0.83456    0.31091   1.00
H2       0.62895    0.82562    0.28697   1.00
H2       0.69030    0.85024    0.33514   1.00
H2       0.44247    0.63293    0.17965   1.00
H2       0.48763    0.60614    0.17212   1.00
C2       0.39605    0.75091    0.24748   1.00
C3       0.41597    0.71995    0.26596   1.00
O2       0.39674    0.68565    0.27459   1.00
C3       0.41826    0.78198    0.23177   1.00
H1       0.40385    0.80660    0.21834   1.00
C3a      0.45713    0.72017    0.26744   1.00
H1       0.47202    0.69520    0.27970   1.00
C3b      0.45922    0.78151    0.23218   1.00
C4       0.47900    0.75042    0.25003   1.00
O3       0.52167    0.72018    0.18546   1.00
C5       0.38720    0.68435    0.31462   1.00
H2       0.41391    0.68615    0.33321   1.00
C5       0.36674    0.64552    0.32189   1.00
H2       0.36726    0.70877    0.32264   1.00
H2       0.38932    0.62226    0.32416   1.00
H2       0.34907    0.63873    0.29546   1.00
C5       0.34082    0.64597    0.35857   1.00
H2       0.35824    0.65579    0.38410   1.00
C5       0.32453    0.60498    0.36709   1.00
H2       0.31507    0.66565    0.35472   1.00
C5       0.49017    0.66748    0.15372   1.00
H2       0.51215    0.66457    0.12995   1.00
H2       0.46952    0.69092    0.14471   1.00
C5       0.46800    0.62888    0.15982   1.00
C5       0.45225    0.61389    0.12052   1.00
H2       0.69286    0.85783    0.40359   1.00
H2       0.68447    0.90799    0.38453   1.00
H2       0.64323    0.87977    0.40578   1.00
H2       0.53105    0.87889    0.06827   1.00
H2       0.50551    0.90938    0.10525   1.00
H2       0.55293    0.88591    0.11748   1.00
H2       0.29387    0.60763    0.37969   1.00
H2       0.32344    0.58741    0.33888   1.00
H2       0.34423    0.58956    0.38900   1.00
H2       0.45634    0.63732    0.09727   1.00
H2       0.46884    0.58646    0.11166   1.00
H2       0.41990    0.60678    0.12352   1.00
C5       0.14944    0.36782    0.32721   1.00
H2       0.14096    0.35255    0.29993   1.00
H2       0.12573    0.38910    0.33319   1.00
C5       0.15259    0.33806    0.36072   1.00
C5       0.11204    0.32877    0.37768   1.00
H2       0.17151    0.34985    0.38434   1.00
O3       0.28290    0.52000    0.31271   1.00
C4       0.25003    0.47900    0.24958   1.00
C3c      0.21879    0.45757    0.26520   1.00
H1       0.19401    0.47275    0.27747   1.00
C3d      0.28179    0.45865    0.23323   1.00
C3       0.21919    0.41646    0.26579   1.00
O2       0.18565    0.39752    0.27714   1.00
C3       0.28261    0.41773    0.23445   1.00
H1       0.30821    0.40343    0.22281   1.00
C2       0.25146    0.39561    0.25052   1.00
C5       0.32406    0.52121    0.31116   1.00
H2       0.33552    0.55162    0.31251   1.00
H2       0.33517    0.50734    0.28387   1.00
C5       0.33953    0.49871    0.34628   1.00
H2       0.32720    0.46863    0.34553   1.00
H2       0.32856    0.51302    0.37335   1.00
C5       0.38444    0.49738    0.34609   1.00
H2       0.39695    0.52732    0.34656   1.00
H2       0.39539    0.48189    0.31974   1.00
C5       0.39933    0.47555    0.38243   1.00
C5       0.30931    0.48895    0.18075   1.00
C5       0.18719    0.38930    0.31755   1.00
H2       0.28413    0.50912    0.17724   1.00
H2       0.30451    0.46288    0.16184   1.00
H2       0.18909    0.41700    0.33456   1.00
H2       0.21303    0.37105    0.32562   1.00
H2       0.16486    0.30970    0.35024   1.00
H2       0.32035    0.55753    0.13293   1.00
H2       0.32788    0.51237    0.10614   1.00
C2       0.25252    0.60395    0.25091   1.00
C3       0.23404    0.58403    0.21995   1.00
O2       0.22541    0.60326    0.18565   1.00
C3       0.26823    0.58174    0.28198   1.00
H1       0.28166    0.59615    0.30660   1.00
C3a      0.23256    0.54287    0.22017   1.00
H1       0.22030    0.52798    0.19520   1.00
C3b      0.26782    0.54078    0.28151   1.00
C4       0.24997    0.52100    0.25042   1.00
O3       0.31454    0.47833    0.22018   1.00
C5       0.18538    0.61280    0.18435   1.00
H2       0.16679    0.58609    0.18615   1.00
C5       0.17811    0.63326    0.14552   1.00
H2       0.17736    0.63274    0.20877   1.00
H2       0.17584    0.61068    0.12226   1.00
H2       0.20454    0.65093    0.13873   1.00
C5       0.14143    0.65918    0.14597   1.00
H2       0.11590    0.64176    0.15579   1.00
C5       0.13291    0.67547    0.10498   1.00
H2       0.14528    0.68493    0.16565   1.00
C5       0.34628    0.50983    0.16748   1.00
H2       0.37005    0.48785    0.16457   1.00
H2       0.35529    0.53048    0.19092   1.00
C5       0.34018    0.53200    0.12888   1.00
C5       0.37948    0.54775    0.11389   1.00
H2       0.09641    0.30714    0.35783   1.00
H2       0.11547    0.31553    0.40799   1.00
H2       0.09422    0.35677    0.37977   1.00
H2       0.43173    0.46895    0.37889   1.00
H2       0.39475    0.49449    0.40938   1.00
H2       0.38252    0.44707    0.38591   1.00
H2       0.12031    0.70613    0.10763   1.00
H2       0.16112    0.67656    0.08741   1.00
H2       0.11100    0.65577    0.08956   1.00
H2       0.40273    0.54366    0.13732   1.00
H2       0.38834    0.53116    0.08646   1.00
H2       0.37648    0.58010    0.10678   1.00
C5       0.32721    0.64944    -0.13218   1.00
H2       0.29993    0.64096    -0.14745   1.00
H2       0.33319    0.62573    -0.11090   1.00
C5       0.36072    0.65259    -0.16194   1.00
C5       0.37768    0.61204    -0.17123   1.00
H2       0.38434    0.67151    -0.15015   1.00
O3       0.31271    0.78290    0.02000   1.00
C4       0.24958    0.75003    -0.02100   1.00
C3c      0.26520    0.71879    -0.04243   1.00
H1       0.27747    0.69401    -0.02725   1.00
C3d      0.23323    0.78179    -0.04135   1.00
C3       0.26579    0.71919    -0.08354   1.00
O2       0.27714    0.68565    -0.10248   1.00
C3       0.23445    0.78261    -0.08227   1.00
H1       0.22281    0.80821    -0.09657   1.00
C2       0.25052    0.75146    -0.10439   1.00
C5       0.31116    0.82406    0.02121   1.00
H2       0.31251    0.83552    0.05162   1.00
H2       0.28387    0.83517    0.00734   1.00
C5       0.34628    0.83953    -0.00129   1.00
H2       0.34553    0.82720    -0.03137   1.00
H2       0.37335    0.82856    0.01302   1.00
C5       0.34609    0.88444    -0.00262   1.00
H2       0.34656    0.89695    0.02732   1.00
H2       0.31974    0.89539    -0.01811   1.00
C5       0.38243    0.89933    -0.02445   1.00
C5       0.18075    0.80931    -0.01105   1.00
C5       0.31755    0.68719    -0.11070   1.00
H2       0.17724    0.78413    0.00912   1.00
H2       0.16184    0.80451    -0.03712   1.00
H2       0.33456    0.68909    -0.08300   1.00
H2       0.32562    0.71303    -0.12895   1.00
H2       0.35024    0.66486    -0.19030   1.00
H2       0.13293    0.82035    0.05753   1.00
H2       0.10614    0.82788    0.01237   1.00
C2       0.25091    0.75252    0.10395   1.00
C3       0.21995    0.73404    0.08403   1.00
O2       0.18565    0.72541    0.10326   1.00
C3       0.28198    0.76823    0.08174   1.00
H1       0.30660    0.78166    0.09615   1.00
C3a      0.22017    0.73256    0.04287   1.00
H1       0.19520    0.72030    0.02798   1.00
C3b      0.28151    0.76782    0.04078   1.00
C4       0.25042    0.74997    0.02100   1.00
O3       0.22018    0.81454    -0.02167   1.00
C5       0.18435    0.68538    0.11280   1.00
H2       0.18615    0.66679    0.08609   1.00
C5       0.14552    0.67811    0.13326   1.00
H2       0.20877    0.67736    0.13274   1.00
H2       0.12226    0.67584    0.11068   1.00
H2       0.13873    0.70454    0.15093   1.00
C5       0.14597    0.64143    0.15918   1.00
H2       0.15579    0.61590    0.14176   1.00
C5       0.10498    0.63291    0.17547   1.00
H2       0.16565    0.64528    0.18493   1.00
C5       0.16748    0.84628    0.00983   1.00
H2       0.16457    0.87005    -0.01215   1.00
H2       0.19092    0.85529    0.03048   1.00
C5       0.12888    0.84018    0.03200   1.00
C5       0.11389    0.87948    0.04775   1.00
H2       0.35783    0.59641    -0.19286   1.00
H2       0.40799    0.61547    -0.18447   1.00
H2       0.37977    0.59422    -0.14323   1.00
H2       0.37889    0.93173    -0.03105   1.00
H2       0.40938    0.89475    -0.00551   1.00
H2       0.38591    0.88252    -0.05293   1.00
H2       0.10763    0.62031    0.20613   1.00
H2       0.08741    0.66112    0.17656   1.00
H2       0.08956    0.61100    0.15577   1.00
H2       0.13732    0.90273    0.04366   1.00
H2       0.08646    0.88834    0.03116   1.00
H2       0.10678    0.87648    0.08010   1.00
C5       0.82721    0.35056    0.63218   1.00
H2       0.79993    0.35904    0.64745   1.00
H2       0.83319    0.37427    0.61090   1.00
C5       0.86072    0.34741    0.66194   1.00
C5       0.87768    0.38796    0.67123   1.00
H2       0.88434    0.32849    0.65015   1.00
O3       0.81271    0.21710    0.48000   1.00
C4       0.74958    0.24997    0.52100   1.00
C3c      0.76520    0.28121    0.54243   1.00
H1       0.77747    0.30599    0.52725   1.00
C3d      0.73323    0.21821    0.54135   1.00
C3       0.76579    0.28081    0.58354   1.00
O2       0.77714    0.31435    0.60248   1.00
C3       0.73445    0.21739    0.58227   1.00
H1       0.72281    0.19179    0.59657   1.00
C2       0.75052    0.24854    0.60439   1.00
C5       0.81116    0.17594    0.47879   1.00
H2       0.81251    0.16448    0.44838   1.00
H2       0.78387    0.16483    0.49266   1.00
C5       0.84628    0.16047    0.50129   1.00
H2       0.84553    0.17280    0.53137   1.00
H2       0.87335    0.17144    0.48698   1.00
C5       0.84609    0.11556    0.50262   1.00
H2       0.84656    0.10305    0.47268   1.00
H2       0.81974    0.10461    0.51811   1.00
C5       0.88243    0.10067    0.52445   1.00
C5       0.68075    0.19069    0.51105   1.00
C5       0.81755    0.31281    0.61070   1.00
H2       0.67724    0.21587    0.49088   1.00
H2       0.66184    0.19549    0.53712   1.00
H2       0.83456    0.31091    0.58300   1.00
H2       0.82562    0.28697    0.62895   1.00
H2       0.85024    0.33514    0.69030   1.00
H2       0.63293    0.17965    0.44247   1.00
H2       0.60614    0.17212    0.48763   1.00
C2       0.75091    0.24748    0.39605   1.00
C3       0.71995    0.26596    0.41597   1.00
O2       0.68565    0.27459    0.39674   1.00
C3       0.78198    0.23177    0.41826   1.00
H1       0.80660    0.21834    0.40385   1.00
C3a      0.72017    0.26744    0.45713   1.00
H1       0.69520    0.27970    0.47202   1.00
C3b      0.78151    0.23218    0.45922   1.00
C4       0.75042    0.25003    0.47900   1.00
O3       0.72018    0.18546    0.52167   1.00
C5       0.68435    0.31462    0.38720   1.00
H2       0.68615    0.33321    0.41391   1.00
C5       0.64552    0.32189    0.36674   1.00
H2       0.70877    0.32264    0.36726   1.00
H2       0.62226    0.32416    0.38932   1.00
H2       0.63873    0.29546    0.34907   1.00
C5       0.64597    0.35857    0.34082   1.00
H2       0.65579    0.38410    0.35824   1.00
C5       0.60498    0.36709    0.32453   1.00
H2       0.66565    0.35472    0.31507   1.00
C5       0.66748    0.15372    0.49017   1.00
H2       0.66457    0.12995    0.51215   1.00
H2       0.69092    0.14471    0.46952   1.00
C5       0.62888    0.15982    0.46800   1.00
C5       0.61389    0.12052    0.45225   1.00
H2       0.85783    0.40359    0.69286   1.00
H2       0.90799    0.38453    0.68447   1.00
H2       0.87977    0.40578    0.64323   1.00
H2       0.87889    0.06827    0.53105   1.00
H2       0.90938    0.10525    0.50551   1.00
H2       0.88591    0.11748    0.55293   1.00
H2       0.60763    0.37969    0.29387   1.00
H2       0.58741    0.33888    0.32344   1.00
H2       0.58956    0.38900    0.34423   1.00
H2       0.63732    0.09727    0.45634   1.00
H2       0.58646    0.11166    0.46884   1.00
H2       0.60678    0.12352    0.41990   1.00
C5       0.85056    0.63218    0.32721   1.00
H2       0.85904    0.64745    0.29993   1.00
H2       0.87427    0.61090    0.33319   1.00
C5       0.84741    0.66194    0.36072   1.00
C5       0.88796    0.67123    0.37768   1.00
H2       0.82849    0.65015    0.38434   1.00
O3       0.71710    0.48000    0.31271   1.00
C4       0.74997    0.52100    0.24958   1.00
C3c      0.78121    0.54243    0.26520   1.00
H1       0.80599    0.52725    0.27747   1.00
C3d      0.71821    0.54135    0.23323   1.00
C3       0.78081    0.58354    0.26579   1.00
O2       0.81435    0.60248    0.27714   1.00
C3       0.71739    0.58227    0.23445   1.00
H1       0.69179    0.59657    0.22281   1.00
C2       0.74854    0.60439    0.25052   1.00
C5       0.67594    0.47879    0.31116   1.00
H2       0.66448    0.44838    0.31251   1.00
H2       0.66483    0.49266    0.28387   1.00
C5       0.66047    0.50129    0.34628   1.00
H2       0.67280    0.53137    0.34553   1.00
H2       0.67144    0.48698    0.37335   1.00
C5       0.61556    0.50262    0.34609   1.00
H2       0.60305    0.47268    0.34656   1.00
H2       0.60461    0.51811    0.31974   1.00
C5       0.60067    0.52445    0.38243   1.00
C5       0.69069    0.51105    0.18075   1.00
C5       0.81281    0.61070    0.31755   1.00
H2       0.71587    0.49088    0.17724   1.00
H2       0.69549    0.53712    0.16184   1.00
H2       0.81091    0.58300    0.33456   1.00
H2       0.78697    0.62895    0.32562   1.00
H2       0.83514    0.69030    0.35024   1.00
H2       0.67965    0.44247    0.13293   1.00
H2       0.67212    0.48763    0.10614   1.00
C2       0.74748    0.39605    0.25091   1.00
C3       0.76596    0.41597    0.21995   1.00
O2       0.77459    0.39674    0.18565   1.00
C3       0.73177    0.41826    0.28198   1.00
H1       0.71834    0.40385    0.30660   1.00
C3a      0.76744    0.45713    0.22017   1.00
H1       0.77970    0.47202    0.19520   1.00
C3b      0.73218    0.45922    0.28151   1.00
C4       0.75003    0.47900    0.25042   1.00
O3       0.68546    0.52167    0.22018   1.00
C5       0.81462    0.38720    0.18435   1.00
H2       0.83321    0.41391    0.18615   1.00
C5       0.82189    0.36674    0.14552   1.00
H2       0.82264    0.36726    0.20877   1.00
H2       0.82416    0.38932    0.12226   1.00
H2       0.79546    0.34907    0.13873   1.00
C5       0.85857    0.34082    0.14597   1.00
H2       0.88410    0.35824    0.15579   1.00
C5       0.86709    0.32453    0.10498   1.00
H2       0.85472    0.31507    0.16565   1.00
C5       0.65372    0.49017    0.16748   1.00
H2       0.62995    0.51215    0.16457   1.00
H2       0.64471    0.46952    0.19092   1.00
C5       0.65982    0.46800    0.12888   1.00
C5       0.62052    0.45225    0.11389   1.00
H2       0.90359    0.69286    0.35783   1.00
H2       0.88453    0.68447    0.40799   1.00
H2       0.90578    0.64323    0.37977   1.00
H2       0.56827    0.53105    0.37889   1.00
H2       0.60525    0.50551    0.40938   1.00
H2       0.61748    0.55293    0.38591   1.00
H2       0.87969    0.29387    0.10763   1.00
H2       0.83888    0.32344    0.08741   1.00
H2       0.88900    0.34423    0.08956   1.00
H2       0.59727    0.45634    0.13732   1.00
H2       0.61166    0.46884    0.08646   1.00
H2       0.62352    0.41990    0.10678   1.00
C5       0.36782    0.32721    0.14944   1.00
H2       0.35255    0.29993    0.14096   1.00
H2       0.38910    0.33319    0.12573   1.00
C5       0.33806    0.36072    0.15259   1.00
C5       0.32877    0.37768    0.11204   1.00
H2       0.34985    0.38434    0.17151   1.00
O3       0.52000    0.31271    0.28290   1.00
C4       0.47900    0.24958    0.25003   1.00
C3c      0.45757    0.26520    0.21879   1.00
H1       0.47275    0.27747    0.19401   1.00
C3d      0.45865    0.23323    0.28179   1.00
C3       0.41646    0.26579    0.21919   1.00
O2       0.39752    0.27714    0.18565   1.00
C3       0.41773    0.23445    0.28261   1.00
H1       0.40343    0.22281    0.30821   1.00
C2       0.39561    0.25052    0.25146   1.00
C5       0.52121    0.31116    0.32406   1.00
H2       0.55162    0.31251    0.33552   1.00
H2       0.50734    0.28387    0.33517   1.00
C5       0.49871    0.34628    0.33953   1.00
H2       0.46863    0.34553    0.32720   1.00
H2       0.51302    0.37335    0.32856   1.00
C5       0.49738    0.34609    0.38444   1.00
H2       0.52732    0.34656    0.39695   1.00
H2       0.48189    0.31974    0.39539   1.00
C5       0.47555    0.38243    0.39933   1.00
C5       0.48895    0.18075    0.30931   1.00
C5       0.38930    0.31755    0.18719   1.00
H2       0.50912    0.17724    0.28413   1.00
H2       0.46288    0.16184    0.30451   1.00
H2       0.41700    0.33456    0.18909   1.00
H2       0.37105    0.32562    0.21303   1.00
H2       0.30970    0.35024    0.16486   1.00
H2       0.55753    0.13293    0.32035   1.00
H2       0.51237    0.10614    0.32788   1.00
C2       0.60395    0.25091    0.25252   1.00
C3       0.58403    0.21995    0.23404   1.00
O2       0.60326    0.18565    0.22541   1.00
C3       0.58174    0.28198    0.26823   1.00
H1       0.59615    0.30660    0.28166   1.00
C3a      0.54287    0.22017    0.23256   1.00
H1       0.52798    0.19520    0.22030   1.00
C3b      0.54078    0.28151    0.26782   1.00
C4       0.52100    0.25042    0.24997   1.00
O3       0.47833    0.22018    0.31454   1.00
C5       0.61280    0.18435    0.18538   1.00
H2       0.58609    0.18615    0.16679   1.00
C5       0.63326    0.14552    0.17811   1.00
H2       0.63274    0.20877    0.17736   1.00
H2       0.61068    0.12226    0.17584   1.00
H2       0.65093    0.13873    0.20454   1.00
C5       0.65918    0.14597    0.14143   1.00
H2       0.64176    0.15579    0.11590   1.00
C5       0.67547    0.10498    0.13291   1.00
H2       0.68493    0.16565    0.14528   1.00
C5       0.50983    0.16748    0.34628   1.00
H2       0.48785    0.16457    0.37005   1.00
H2       0.53048    0.19092    0.35529   1.00
C5       0.53200    0.12888    0.34018   1.00
C5       0.54775    0.11389    0.37948   1.00
H2       0.30714    0.35783    0.09641   1.00
H2       0.31553    0.40799    0.11547   1.00
H2       0.35677    0.37977    0.09422   1.00
H2       0.46895    0.37889    0.43173   1.00
H2       0.49449    0.40938    0.39475   1.00
H2       0.44707    0.38591    0.38252   1.00
H2       0.70613    0.10763    0.12031   1.00
H2       0.67656    0.08741    0.16112   1.00
H2       0.65577    0.08956    0.11100   1.00
H2       0.54366    0.13732    0.40273   1.00
H2       0.53116    0.08646    0.38834   1.00
H2       0.58010    0.10678    0.37648   1.00
C5       1.13218    0.32721    0.35056   1.00
H2       1.14745    0.29993    0.35904   1.00
H2       1.11090    0.33319    0.37427   1.00
C5       1.16194    0.36072    0.34741   1.00
C5       1.17123    0.37768    0.38796   1.00
H2       1.15015    0.38434    0.32849   1.00
O3       0.98000    0.31271    0.21710   1.00
C4       1.02100    0.24958    0.24997   1.00
C3c      1.04243    0.26520    0.28121   1.00
H1       1.02725    0.27747    0.30599   1.00
C3d      1.04135    0.23323    0.21821   1.00
C3       1.08354    0.26579    0.28081   1.00
O2       1.10248    0.27714    0.31435   1.00
C3       1.08227    0.23445    0.21739   1.00
H1       1.09657    0.22281    0.19179   1.00
C2       1.10439    0.25052    0.24854   1.00
C5       0.97879    0.31116    0.17594   1.00
H2       0.94838    0.31251    0.16448   1.00
H2       0.99266    0.28387    0.16483   1.00
C5       1.00129    0.34628    0.16047   1.00
H2       1.03137    0.34553    0.17280   1.00
H2       0.98698    0.37335    0.17144   1.00
C5       1.00262    0.34609    0.11556   1.00
H2       0.97268    0.34656    0.10305   1.00
H2       1.01811    0.31974    0.10461   1.00
C5       1.02445    0.38243    0.10067   1.00
C5       1.01105    0.18075    0.19069   1.00
C5       1.11070    0.31755    0.31281   1.00
H2       0.99088    0.17724    0.21587   1.00
H2       1.03712    0.16184    0.19549   1.00
H2       1.08300    0.33456    0.31091   1.00
H2       1.12895    0.32562    0.28697   1.00
H2       1.19030    0.35024    0.33514   1.00
H2       0.94247    0.13293    0.17965   1.00
H2       0.98763    0.10614    0.17212   1.00
C2       0.89605    0.25091    0.24748   1.00
C3       0.91597    0.21995    0.26596   1.00
O2       0.89674    0.18565    0.27459   1.00
C3       0.91826    0.28198    0.23177   1.00
H1       0.90385    0.30660    0.21834   1.00
C3a      0.95713    0.22017    0.26744   1.00
H1       0.97202    0.19520    0.27970   1.00
C3b      0.95922    0.28151    0.23218   1.00
C4       0.97900    0.25042    0.25003   1.00
O3       1.02167    0.22018    0.18546   1.00
C5       0.88720    0.18435    0.31462   1.00
H2       0.91391    0.18615    0.33321   1.00
C5       0.86674    0.14552    0.32189   1.00
H2       0.86726    0.20877    0.32264   1.00
H2       0.88932    0.12226    0.32416   1.00
H2       0.84907    0.13873    0.29546   1.00
C5       0.84082    0.14597    0.35857   1.00
H2       0.85824    0.15579    0.38410   1.00
C5       0.82453    0.10498    0.36709   1.00
H2       0.81507    0.16565    0.35472   1.00
C5       0.99017    0.16748    0.15372   1.00
H2       1.01215    0.16457    0.12995   1.00
H2       0.96952    0.19092    0.14471   1.00
C5       0.96800    0.12888    0.15982   1.00
C5       0.95225    0.11389    0.12052   1.00
H2       1.19286    0.35783    0.40359   1.00
H2       1.18447    0.40799    0.38453   1.00
H2       1.14323    0.37977    0.40578   1.00
H2       1.03105    0.37889    0.06827   1.00
H2       1.00551    0.40938    0.10525   1.00
H2       1.05293    0.38591    0.11748   1.00
H2       0.79387    0.10763    0.37969   1.00
H2       0.82344    0.08741    0.33888   1.00
H2       0.84423    0.08956    0.38900   1.00
H2       0.95634    0.13732    0.09727   1.00
H2       0.96884    0.08646    0.11166   1.00
H2       0.91990    0.10678    0.12352   1.00
C5       0.64944    -0.13218   0.32721   1.00
H2       0.64096    -0.14745   0.29993   1.00
H2       0.62573    -0.11090   0.33319   1.00
C5       0.65259    -0.16194   0.36072   1.00
C5       0.61204    -0.17123   0.37768   1.00
H2       0.67151    -0.15015   0.38434   1.00
O3       0.78290    0.02000    0.31271   1.00
C4       0.75003    -0.02100   0.24958   1.00
C3c      0.71879    -0.04243   0.26520   1.00
H1       0.69401    -0.02725   0.27747   1.00
C3d      0.78179    -0.04135   0.23323   1.00
C3       0.71919    -0.08354   0.26579   1.00
O2       0.68565    -0.10248   0.27714   1.00
C3       0.78261    -0.08227   0.23445   1.00
H1       0.80821    -0.09657   0.22281   1.00
C2       0.75146    -0.10439   0.25052   1.00
C5       0.82406    0.02121    0.31116   1.00
H2       0.83552    0.05162    0.31251   1.00
H2       0.83517    0.00734    0.28387   1.00
C5       0.83953    -0.00129   0.34628   1.00
H2       0.82720    -0.03137   0.34553   1.00
H2       0.82856    0.01302    0.37335   1.00
C5       0.88444    -0.00262   0.34609   1.00
H2       0.89695    0.02732    0.34656   1.00
H2       0.89539    -0.01811   0.31974   1.00
C5       0.89933    -0.02445   0.38243   1.00
C5       0.80931    -0.01105   0.18075   1.00
C5       0.68719    -0.11070   0.31755   1.00
H2       0.78413    0.00912    0.17724   1.00
H2       0.80451    -0.03712   0.16184   1.00
H2       0.68909    -0.08300   0.33456   1.00
H2       0.71303    -0.12895   0.32562   1.00
H2       0.66486    -0.19030   0.35024   1.00
H2       0.82035    0.05753    0.13293   1.00
H2       0.82788    0.01237    0.10614   1.00
C2       0.75252    0.10395    0.25091   1.00
C3       0.73404    0.08403    0.21995   1.00
O2       0.72541    0.10326    0.18565   1.00
C3       0.76823    0.08174    0.28198   1.00
H1       0.78166    0.09615    0.30660   1.00
C3a      0.73256    0.04287    0.22017   1.00
H1       0.72030    0.02798    0.19520   1.00
C3b      0.76782    0.04078    0.28151   1.00
C4       0.74997    0.02100    0.25042   1.00
O3       0.81454    -0.02167   0.22018   1.00
C5       0.68538    0.11280    0.18435   1.00
H2       0.66679    0.08609    0.18615   1.00
C5       0.67811    0.13326    0.14552   1.00
H2       0.67736    0.13274    0.20877   1.00
H2       0.67584    0.11068    0.12226   1.00
H2       0.70454    0.15093    0.13873   1.00
C5       0.64143    0.15918    0.14597   1.00
H2       0.61590    0.14176    0.15579   1.00
C5       0.63291    0.17547    0.10498   1.00
H2       0.64528    0.18493    0.16565   1.00
C5       0.84628    0.00983    0.16748   1.00
H2       0.87005    -0.01215   0.16457   1.00
H2       0.85529    0.03048    0.19092   1.00
C5       0.84018    0.03200    0.12888   1.00
C5       0.87948    0.04775    0.11389   1.00
H2       0.59641    -0.19286   0.35783   1.00
H2       0.61547    -0.18447   0.40799   1.00
H2       0.59422    -0.14323   0.37977   1.00
H2       0.93173    -0.03105   0.37889   1.00
H2       0.89475    -0.00551   0.40938   1.00
H2       0.88252    -0.05293   0.38591   1.00
H2       0.62031    0.20613    0.10763   1.00
H2       0.66112    0.17656    0.08741   1.00
H2       0.61100    0.15577    0.08956   1.00
H2       0.90273    0.04366    0.13732   1.00
H2       0.88834    0.03116    0.08646   1.00
H2       0.87648    0.08010    0.10678   1.00
C5       0.82721    0.14944    -0.13218   1.00
H2       0.79993    0.14096    -0.14745   1.00
H2       0.83319    0.12573    -0.11090   1.00
C5       0.86072    0.15259    -0.16194   1.00
C5       0.87768    0.11204    -0.17123   1.00
H2       0.88434    0.17151    -0.15015   1.00
O3       0.81271    0.28290    0.02000   1.00
C4       0.74958    0.25003    -0.02100   1.00
C3c      0.76520    0.21879    -0.04243   1.00
H1       0.77747    0.19401    -0.02725   1.00
C3d      0.73323    0.28179    -0.04135   1.00
C3       0.76579    0.21919    -0.08354   1.00
O2       0.77714    0.18565    -0.10248   1.00
C3       0.73445    0.28261    -0.08227   1.00
H1       0.72281    0.30821    -0.09657   1.00
C2       0.75052    0.25146    -0.10439   1.00
C5       0.81116    0.32406    0.02121   1.00
H2       0.81251    0.33552    0.05162   1.00
H2       0.78387    0.33517    0.00734   1.00
C5       0.84628    0.33953    -0.00129   1.00
H2       0.84553    0.32720    -0.03137   1.00
H2       0.87335    0.32856    0.01302   1.00
C5       0.84609    0.38444    -0.00262   1.00
H2       0.84656    0.39695    0.02732   1.00
H2       0.81974    0.39539    -0.01811   1.00
C5       0.88243    0.39933    -0.02445   1.00
C5       0.68075    0.30931    -0.01105   1.00
C5       0.81755    0.18719    -0.11070   1.00
H2       0.67724    0.28413    0.00912   1.00
H2       0.66184    0.30451    -0.03712   1.00
H2       0.83456    0.18909    -0.08300   1.00
H2       0.82562    0.21303    -0.12895   1.00
H2       0.85024    0.16486    -0.19030   1.00
H2       0.63293    0.32035    0.05753   1.00
H2       0.60614    0.32788    0.01237   1.00
C2       0.75091    0.25252    0.10395   1.00
C3       0.71995    0.23404    0.08403   1.00
O2       0.68565    0.22541    0.10326   1.00
C3       0.78198    0.26823    0.08174   1.00
H1       0.80660    0.28166    0.09615   1.00
C3a      0.72017    0.23256    0.04287   1.00
H1       0.69520    0.22030    0.02798   1.00
C3b      0.78151    0.26782    0.04078   1.00
C4       0.75042    0.24997    0.02100   1.00
O3       0.72018    0.31454    -0.02167   1.00
C5       0.68435    0.18538    0.11280   1.00
H2       0.68615    0.16679    0.08609   1.00
C5       0.64552    0.17811    0.13326   1.00
H2       0.70877    0.17736    0.13274   1.00
H2       0.62226    0.17584    0.11068   1.00
H2       0.63873    0.20454    0.15093   1.00
C5       0.64597    0.14143    0.15918   1.00
H2       0.65579    0.11590    0.14176   1.00
C5       0.60498    0.13291    0.17547   1.00
H2       0.66565    0.14528    0.18493   1.00
C5       0.66748    0.34628    0.00983   1.00
H2       0.66457    0.37005    -0.01215   1.00
H2       0.69092    0.35529    0.03048   1.00
C5       0.62888    0.34018    0.03200   1.00
C5       0.61389    0.37948    0.04775   1.00
H2       0.85783    0.09641    -0.19286   1.00
H2       0.90799    0.11547    -0.18447   1.00
H2       0.87977    0.09422    -0.14323   1.00
H2       0.87889    0.43173    -0.03105   1.00
H2       0.90938    0.39475    -0.00551   1.00
H2       0.88591    0.38252    -0.05293   1.00
H2       0.60763    0.12031    0.20613   1.00
H2       0.58741    0.16112    0.17656   1.00
H2       0.58956    0.11100    0.15577   1.00
H2       0.63732    0.40273    0.04366   1.00
H2       0.58646    0.38834    0.03116   1.00
H2       0.60678    0.37648    0.08010   1.00
