data_IRMOF10_SG202_Ligand3_label_s.

_audit_creation_method             'generated by an auxiliary program of Tobunporous'

_symmetry_space_group_name_H-M     'P 1'
_symmetry_Int_Tables_number        1
_symmetry_cell_setting             triclinic

_cell_length_a                    34.2800
_cell_length_b                    34.2800
_cell_length_c                    34.2800
_cell_angle_alpha                 90.0000
_cell_angle_beta                  90.0000
_cell_angle_gamma                 90.0000

loop_
_atom_site_label
_atom_site_fract_x
_atom_site_fract_y
_atom_site_fract_z
_atom_site_occupancy
O1       0.75000    0.75000    0.75000   1.00
Zn1      0.71720    0.78280    0.78280   1.00
Zn1      0.78280    0.71720    0.78280   1.00
Zn1      0.78280    0.78280    0.71720   1.00
Zn1      0.71720    0.71720    0.71720   1.00
O2       0.72650    0.77350    0.83820   1.00
O2       0.72650    0.83820    0.77350   1.00
O2       0.66180    0.77350    0.77350   1.00
O2       0.77350    0.72650    0.83820   1.00
O2       0.83820    0.72650    0.77350   1.00
O2       0.77350    0.66180    0.77350   1.00
O2       0.77350    0.83820    0.72650   1.00
O2       0.83820    0.77350    0.72650   1.00
O2       0.77350    0.77350    0.66180   1.00
O2       0.66180    0.72650    0.72650   1.00
O2       0.72650    0.66180    0.72650   1.00
O2       0.72650    0.72650    0.66180   1.00
C1       0.75000    0.75000    0.85520   1.00
C1       0.75000    0.85520    0.75000   1.00
C1       0.64480    0.75000    0.75000   1.00
C1       0.85520    0.75000    0.75000   1.00
C1       0.75000    0.64480    0.75000   1.00
C1       0.75000    0.75000    0.64480   1.00
O1       0.25000    0.25000    0.75000   1.00
Zn1      0.21720    0.28280    0.78280   1.00
Zn1      0.28280    0.21720    0.78280   1.00
Zn1      0.28280    0.28280    0.71720   1.00
Zn1      0.21720    0.21720    0.71720   1.00
O2       0.22650    0.27350    0.83820   1.00
O2       0.22650    0.33820    0.77350   1.00
O2       0.16180    0.27350    0.77350   1.00
O2       0.27350    0.22650    0.83820   1.00
O2       0.33820    0.22650    0.77350   1.00
O2       0.27350    0.16180    0.77350   1.00
O2       0.27350    0.33820    0.72650   1.00
O2       0.33820    0.27350    0.72650   1.00
O2       0.27350    0.27350    0.66180   1.00
O2       0.16180    0.22650    0.72650   1.00
O2       0.22650    0.16180    0.72650   1.00
O2       0.22650    0.22650    0.66180   1.00
C1       0.25000    0.25000    0.85520   1.00
C1       0.25000    0.35520    0.75000   1.00
C1       0.14480    0.25000    0.75000   1.00
C1       0.35520    0.25000    0.75000   1.00
C1       0.25000    0.14480    0.75000   1.00
C1       0.25000    0.25000    0.64480   1.00
O1       0.25000    0.75000    0.25000   1.00
Zn1      0.21720    0.78280    0.28280   1.00
Zn1      0.28280    0.71720    0.28280   1.00
Zn1      0.28280    0.78280    0.21720   1.00
Zn1      0.21720    0.71720    0.21720   1.00
O2       0.22650    0.77350    0.33820   1.00
O2       0.22650    0.83820    0.27350   1.00
O2       0.16180    0.77350    0.27350   1.00
O2       0.27350    0.72650    0.33820   1.00
O2       0.33820    0.72650    0.27350   1.00
O2       0.27350    0.66180    0.27350   1.00
O2       0.27350    0.83820    0.22650   1.00
O2       0.33820    0.77350    0.22650   1.00
O2       0.27350    0.77350    0.16180   1.00
O2       0.16180    0.72650    0.22650   1.00
O2       0.22650    0.66180    0.22650   1.00
O2       0.22650    0.72650    0.16180   1.00
C1       0.25000    0.75000    0.35520   1.00
C1       0.25000    0.85520    0.25000   1.00
C1       0.14480    0.75000    0.25000   1.00
C1       0.35520    0.75000    0.25000   1.00
C1       0.25000    0.64480    0.25000   1.00
C1       0.25000    0.75000    0.14480   1.00
O1       0.75000    0.25000    0.25000   1.00
Zn1      0.71720    0.28280    0.28280   1.00
Zn1      0.78280    0.21720    0.28280   1.00
Zn1      0.78280    0.28280    0.21720   1.00
Zn1      0.71720    0.21720    0.21720   1.00
O2       0.72650    0.27350    0.33820   1.00
O2       0.72650    0.33820    0.27350   1.00
O2       0.66180    0.27350    0.27350   1.00
O2       0.77350    0.22650    0.33820   1.00
O2       0.83820    0.22650    0.27350   1.00
O2       0.77350    0.16180    0.27350   1.00
O2       0.77350    0.33820    0.22650   1.00
O2       0.83820    0.27350    0.22650   1.00
O2       0.77350    0.27350    0.16180   1.00
O2       0.66180    0.22650    0.22650   1.00
O2       0.72650    0.16180    0.22650   1.00
O2       0.72650    0.22650    0.16180   1.00
C1       0.75000    0.25000    0.35520   1.00
C1       0.75000    0.35520    0.25000   1.00
C1       0.64480    0.25000    0.25000   1.00
C1       0.85520    0.25000    0.25000   1.00
C1       0.75000    0.14480    0.25000   1.00
C1       0.75000    0.25000    0.14480   1.00
O1       0.25000    0.25000    0.25000   1.00
Zn1      0.28280    0.21720    0.21720   1.00
Zn1      0.21720    0.28280    0.21720   1.00
Zn1      0.21720    0.21720    0.28280   1.00
Zn1      0.28280    0.28280    0.28280   1.00
O2       0.27350    0.22650    0.16180   1.00
O2       0.27350    0.16180    0.22650   1.00
O2       0.33820    0.22650    0.22650   1.00
O2       0.22650    0.27350    0.16180   1.00
O2       0.16180    0.27350    0.22650   1.00
O2       0.22650    0.33820    0.22650   1.00
O2       0.22650    0.16180    0.27350   1.00
O2       0.16180    0.22650    0.27350   1.00
O2       0.22650    0.22650    0.33820   1.00
O2       0.33820    0.27350    0.27350   1.00
O2       0.27350    0.33820    0.27350   1.00
O2       0.27350    0.27350    0.33820   1.00
C1       0.25000    0.25000    0.14480   1.00
C1       0.25000    0.14480    0.25000   1.00
C1       0.35520    0.25000    0.25000   1.00
C1       0.14480    0.25000    0.25000   1.00
C1       0.25000    0.35520    0.25000   1.00
C1       0.25000    0.25000    0.35520   1.00
O1       0.75000    0.75000    0.25000   1.00
Zn1      0.78280    0.71720    0.21720   1.00
Zn1      0.71720    0.78280    0.21720   1.00
Zn1      0.71720    0.71720    0.28280   1.00
Zn1      0.78280    0.78280    0.28280   1.00
O2       0.77350    0.72650    0.16180   1.00
O2       0.77350    0.66180    0.22650   1.00
O2       0.83820    0.72650    0.22650   1.00
O2       0.72650    0.77350    0.16180   1.00
O2       0.66180    0.77350    0.22650   1.00
O2       0.72650    0.83820    0.22650   1.00
O2       0.72650    0.66180    0.27350   1.00
O2       0.66180    0.72650    0.27350   1.00
O2       0.72650    0.72650    0.33820   1.00
O2       0.83820    0.77350    0.27350   1.00
O2       0.77350    0.83820    0.27350   1.00
O2       0.77350    0.77350    0.33820   1.00
C1       0.75000    0.75000    0.14480   1.00
C1       0.75000    0.64480    0.25000   1.00
C1       0.85520    0.75000    0.25000   1.00
C1       0.64480    0.75000    0.25000   1.00
C1       0.75000    0.85520    0.25000   1.00
C1       0.75000    0.75000    0.35520   1.00
O1       0.75000    0.25000    0.75000   1.00
Zn1      0.78280    0.21720    0.71720   1.00
Zn1      0.71720    0.28280    0.71720   1.00
Zn1      0.71720    0.21720    0.78280   1.00
Zn1      0.78280    0.28280    0.78280   1.00
O2       0.77350    0.22650    0.66180   1.00
O2       0.77350    0.16180    0.72650   1.00
O2       0.83820    0.22650    0.72650   1.00
O2       0.72650    0.27350    0.66180   1.00
O2       0.66180    0.27350    0.72650   1.00
O2       0.72650    0.33820    0.72650   1.00
O2       0.72650    0.16180    0.77350   1.00
O2       0.66180    0.22650    0.77350   1.00
O2       0.72650    0.22650    0.83820   1.00
O2       0.83820    0.27350    0.77350   1.00
O2       0.77350    0.33820    0.77350   1.00
O2       0.77350    0.27350    0.83820   1.00
C1       0.75000    0.25000    0.64480   1.00
C1       0.75000    0.14480    0.75000   1.00
C1       0.85520    0.25000    0.75000   1.00
C1       0.64480    0.25000    0.75000   1.00
C1       0.75000    0.35520    0.75000   1.00
C1       0.75000    0.25000    0.85520   1.00
O1       0.25000    0.75000    0.75000   1.00
Zn1      0.28280    0.71720    0.71720   1.00
Zn1      0.21720    0.78280    0.71720   1.00
Zn1      0.21720    0.71720    0.78280   1.00
Zn1      0.28280    0.78280    0.78280   1.00
O2       0.27350    0.72650    0.66180   1.00
O2       0.27350    0.66180    0.72650   1.00
O2       0.33820    0.72650    0.72650   1.00
O2       0.22650    0.77350    0.66180   1.00
O2       0.16180    0.77350    0.72650   1.00
O2       0.22650    0.83820    0.72650   1.00
O2       0.22650    0.66180    0.77350   1.00
O2       0.16180    0.72650    0.77350   1.00
O2       0.22650    0.72650    0.83820   1.00
O2       0.33820    0.77350    0.77350   1.00
O2       0.27350    0.83820    0.77350   1.00
O2       0.27350    0.77350    0.83820   1.00
C1       0.25000    0.75000    0.64480   1.00
C1       0.25000    0.64480    0.75000   1.00
C1       0.35520    0.75000    0.75000   1.00
C1       0.14480    0.75000    0.75000   1.00
C1       0.25000    0.85520    0.75000   1.00
C1       0.25000    0.75000    0.85520   1.00
C4       0.74698    0.74960    1.02084   1.00
C4       0.74741    0.75019    0.97912   1.00
C3       0.71558    0.76411    1.04364   1.00
C3       0.71818    0.76850    0.95616   1.00
C3       0.77991    0.73425    1.04123   1.00
C3       0.77860    0.73143    0.95886   1.00
C2       0.74917    0.74913    1.10512   1.00
C2       0.75083    0.75087    0.89488   1.00
C3       0.71671    0.76410    1.08462   1.00
C3       0.71962    0.76853    0.91519   1.00
C3       0.78017    0.73383    1.08258   1.00
C3       0.78039    0.73324    0.91762   1.00
H1       0.69090    0.77499    1.03115   1.00
H1       0.69510    0.78257    0.96852   1.00
C5       0.81227    0.71926    1.02020   1.00
C5       0.80803    0.71128    0.97980   1.00
H1       0.69325    0.77524    1.09955   1.00
H1       0.69749    0.78194    0.90010   1.00
H1       0.80351    0.72174    1.09680   1.00
H1       0.80418    0.72184    0.90368   1.00
O3       0.84640    0.71058    1.03961   1.00
O3       0.83385    0.68665    0.96099   1.00
Si1      0.88100    0.74322    1.04247   1.00
Si1      0.82082    0.64159    0.95279   1.00
C6       0.91123    0.71759    1.07538   1.00
C6       0.90276    0.74669    0.99598   1.00
C6       0.86520    0.78796    1.06253   1.00
C6       0.77342    0.62691    0.96693   1.00
C6       0.82560    0.63717    0.90198   1.00
C6       0.85607    0.61132    0.97477   1.00
C6       0.89032    0.69972    1.11194   1.00
H2       0.92050    0.69259    1.05791   1.00
C6       0.94983    0.73631    1.09147   1.00
H2       0.89639    0.71807    0.98358   1.00
C6       0.88592    0.77706    0.96634   1.00
C6       0.94812    0.75137    0.99336   1.00
H2       0.84902    0.77842    1.08831   1.00
C6       0.89741    0.81665    1.07772   1.00
C6       0.83677    0.81476    1.03849   1.00
C6       0.76156    0.63192    1.01071   1.00
C6       0.73736    0.64033    0.94225   1.00
H2       0.77441    0.59544    0.96212   1.00
H2       0.80189    0.65506    0.89051   1.00
C6       0.86377    0.65450    0.88378   1.00
C6       0.82028    0.59559    0.88393   1.00
H2       0.88001    0.61081    0.95375   1.00
C6       0.87463    0.62668    1.01336   1.00
C6       0.84513    0.56761    0.98244   1.00
H2       0.86621    0.68067    1.10346   1.00
H2       0.87865    0.72256    1.13090   1.00
H2       0.91040    0.68190    1.12917   1.00
H2       0.97185    0.71368    1.09608   1.00
H2       0.96229    0.75783    1.07178   1.00
H2       0.94551    0.75058    1.11964   1.00
H2       0.89598    0.77071    0.93672   1.00
H2       0.85420    0.77643    0.96532   1.00
H2       0.89534    0.80663    0.97352   1.00
H2       0.96315    0.72780    1.00862   1.00
H2       0.95818    0.75016    0.96308   1.00
H2       0.95753    0.77930    1.00550   1.00
H2       0.91911    0.82258    1.05514   1.00
H2       0.88515    0.84461    1.08708   1.00
H2       0.91206    0.80504    1.10332   1.00
H2       0.85248    0.83447    1.01902   1.00
H2       0.81625    0.79862    1.02068   1.00
H2       0.81951    0.83291    1.05828   1.00
H2       0.75152    0.66144    1.01688   1.00
H2       0.73758    0.61220    1.01809   1.00
H2       0.78549    0.62523    1.03048   1.00
H2       0.71109    0.62457    0.95125   1.00
H2       0.73120    0.67127    0.94574   1.00
H2       0.74114    0.63434    0.91122   1.00
H2       0.86110    0.65640    0.85202   1.00
H2       0.86932    0.68407    0.89435   1.00
H2       0.88930    0.63665    0.89035   1.00
H2       0.79356    0.58162    0.89416   1.00
H2       0.81821    0.59745    0.85212   1.00
H2       0.84496    0.57665    0.89085   1.00
H2       0.85311    0.62994    1.03656   1.00
H2       0.89774    0.60737    1.02381   1.00
H2       0.88784    0.65503    1.00834   1.00
H2       0.87099    0.55069    0.99044   1.00
H2       0.82407    0.56487    1.00622   1.00
H2       0.83280    0.55382    0.95657   1.00
C4       0.74960    1.02084    0.74698   1.00
C4       0.75019    0.97912    0.74741   1.00
C3       0.76411    1.04364    0.71558   1.00
C3       0.76850    0.95616    0.71818   1.00
C3       0.73425    1.04123    0.77991   1.00
C3       0.73143    0.95886    0.77860   1.00
C2       0.74913    1.10512    0.74917   1.00
C2       0.75087    0.89488    0.75083   1.00
C3       0.76410    1.08462    0.71671   1.00
C3       0.76853    0.91519    0.71962   1.00
C3       0.73383    1.08258    0.78017   1.00
C3       0.73324    0.91762    0.78039   1.00
H1       0.77499    1.03115    0.69090   1.00
H1       0.78257    0.96852    0.69510   1.00
C5       0.71926    1.02020    0.81227   1.00
C5       0.71128    0.97980    0.80803   1.00
H1       0.77524    1.09955    0.69325   1.00
H1       0.78194    0.90010    0.69749   1.00
H1       0.72174    1.09680    0.80351   1.00
H1       0.72184    0.90368    0.80418   1.00
O3       0.71058    1.03961    0.84640   1.00
O3       0.68665    0.96099    0.83385   1.00
Si1      0.74322    1.04247    0.88100   1.00
Si1      0.64159    0.95279    0.82082   1.00
C6       0.71759    1.07538    0.91123   1.00
C6       0.74669    0.99598    0.90276   1.00
C6       0.78796    1.06253    0.86520   1.00
C6       0.62691    0.96693    0.77342   1.00
C6       0.63717    0.90198    0.82560   1.00
C6       0.61132    0.97477    0.85607   1.00
C6       0.69972    1.11194    0.89032   1.00
H2       0.69259    1.05791    0.92050   1.00
C6       0.73631    1.09147    0.94983   1.00
H2       0.71807    0.98358    0.89639   1.00
C6       0.77706    0.96634    0.88592   1.00
C6       0.75137    0.99336    0.94812   1.00
H2       0.77842    1.08831    0.84902   1.00
C6       0.81665    1.07772    0.89741   1.00
C6       0.81476    1.03849    0.83677   1.00
C6       0.63192    1.01071    0.76156   1.00
C6       0.64033    0.94225    0.73736   1.00
H2       0.59544    0.96212    0.77441   1.00
H2       0.65506    0.89051    0.80189   1.00
C6       0.65450    0.88378    0.86377   1.00
C6       0.59559    0.88393    0.82028   1.00
H2       0.61081    0.95375    0.88001   1.00
C6       0.62668    1.01336    0.87463   1.00
C6       0.56761    0.98244    0.84513   1.00
H2       0.68067    1.10346    0.86621   1.00
H2       0.72256    1.13090    0.87865   1.00
H2       0.68190    1.12917    0.91040   1.00
H2       0.71368    1.09608    0.97185   1.00
H2       0.75783    1.07178    0.96229   1.00
H2       0.75058    1.11964    0.94551   1.00
H2       0.77071    0.93672    0.89598   1.00
H2       0.77643    0.96532    0.85420   1.00
H2       0.80663    0.97352    0.89534   1.00
H2       0.72780    1.00862    0.96315   1.00
H2       0.75016    0.96308    0.95818   1.00
H2       0.77930    1.00550    0.95753   1.00
H2       0.82258    1.05514    0.91911   1.00
H2       0.84461    1.08708    0.88515   1.00
H2       0.80504    1.10332    0.91206   1.00
H2       0.83447    1.01902    0.85248   1.00
H2       0.79862    1.02068    0.81625   1.00
H2       0.83291    1.05828    0.81951   1.00
H2       0.66144    1.01688    0.75152   1.00
H2       0.61220    1.01809    0.73758   1.00
H2       0.62523    1.03048    0.78549   1.00
H2       0.62457    0.95125    0.71109   1.00
H2       0.67127    0.94574    0.73120   1.00
H2       0.63434    0.91122    0.74114   1.00
H2       0.65640    0.85202    0.86110   1.00
H2       0.68407    0.89435    0.86932   1.00
H2       0.63665    0.89035    0.88930   1.00
H2       0.58162    0.89416    0.79356   1.00
H2       0.59745    0.85212    0.81821   1.00
H2       0.57665    0.89085    0.84496   1.00
H2       0.62994    1.03656    0.85311   1.00
H2       0.60737    1.02381    0.89774   1.00
H2       0.65503    1.00834    0.88784   1.00
H2       0.55069    0.99044    0.87099   1.00
H2       0.56487    1.00622    0.82407   1.00
H2       0.55382    0.95657    0.83280   1.00
C4       0.47916    0.74698    0.75040   1.00
C4       0.52088    0.74741    0.74981   1.00
C3       0.45636    0.71558    0.73589   1.00
C3       0.54384    0.71818    0.73150   1.00
C3       0.45877    0.77991    0.76575   1.00
C3       0.54114    0.77860    0.76857   1.00
C2       0.39488    0.74917    0.75087   1.00
C2       0.60512    0.75083    0.74913   1.00
C3       0.41538    0.71671    0.73590   1.00
C3       0.58481    0.71962    0.73147   1.00
C3       0.41742    0.78017    0.76617   1.00
C3       0.58238    0.78039    0.76676   1.00
H1       0.46885    0.69090    0.72501   1.00
H1       0.53148    0.69510    0.71743   1.00
C5       0.47980    0.81227    0.78074   1.00
C5       0.52020    0.80803    0.78872   1.00
H1       0.40045    0.69325    0.72476   1.00
H1       0.59990    0.69749    0.71806   1.00
H1       0.40320    0.80351    0.77826   1.00
H1       0.59632    0.80418    0.77816   1.00
O3       0.46039    0.84640    0.78942   1.00
O3       0.53901    0.83385    0.81335   1.00
Si1      0.45753    0.88100    0.75678   1.00
Si1      0.54721    0.82082    0.85841   1.00
C6       0.42462    0.91123    0.78241   1.00
C6       0.50402    0.90276    0.75331   1.00
C6       0.43747    0.86520    0.71204   1.00
C6       0.53307    0.77342    0.87309   1.00
C6       0.59802    0.82560    0.86283   1.00
C6       0.52523    0.85607    0.88868   1.00
C6       0.38806    0.89032    0.80028   1.00
H2       0.44209    0.92050    0.80741   1.00
C6       0.40853    0.94983    0.76369   1.00
H2       0.51642    0.89639    0.78193   1.00
C6       0.53366    0.88592    0.72294   1.00
C6       0.50664    0.94812    0.74863   1.00
H2       0.41169    0.84902    0.72158   1.00
C6       0.42228    0.89741    0.68335   1.00
C6       0.46151    0.83677    0.68524   1.00
C6       0.48929    0.76156    0.86808   1.00
C6       0.55775    0.73736    0.85967   1.00
H2       0.53788    0.77441    0.90456   1.00
H2       0.60949    0.80189    0.84494   1.00
C6       0.61622    0.86377    0.84550   1.00
C6       0.61607    0.82028    0.90441   1.00
H2       0.54625    0.88001    0.88919   1.00
C6       0.48664    0.87463    0.87332   1.00
C6       0.51756    0.84513    0.93239   1.00
H2       0.39654    0.86621    0.81933   1.00
H2       0.36910    0.87865    0.77744   1.00
H2       0.37083    0.91040    0.81810   1.00
H2       0.40392    0.97185    0.78632   1.00
H2       0.42822    0.96229    0.74217   1.00
H2       0.38036    0.94551    0.74942   1.00
H2       0.56328    0.89598    0.72929   1.00
H2       0.53468    0.85420    0.72357   1.00
H2       0.52648    0.89534    0.69337   1.00
H2       0.49138    0.96315    0.77220   1.00
H2       0.53692    0.95818    0.74984   1.00
H2       0.49450    0.95753    0.72070   1.00
H2       0.44486    0.91911    0.67742   1.00
H2       0.41292    0.88515    0.65539   1.00
H2       0.39668    0.91206    0.69496   1.00
H2       0.48098    0.85248    0.66553   1.00
H2       0.47932    0.81625    0.70138   1.00
H2       0.44172    0.81951    0.66709   1.00
H2       0.48312    0.75152    0.83856   1.00
H2       0.48191    0.73758    0.88780   1.00
H2       0.46952    0.78549    0.87477   1.00
H2       0.54875    0.71109    0.87543   1.00
H2       0.55426    0.73120    0.82873   1.00
H2       0.58878    0.74114    0.86566   1.00
H2       0.64798    0.86110    0.84360   1.00
H2       0.60565    0.86932    0.81593   1.00
H2       0.60965    0.88930    0.86335   1.00
H2       0.60584    0.79356    0.91838   1.00
H2       0.64788    0.81821    0.90255   1.00
H2       0.60915    0.84496    0.92335   1.00
H2       0.46344    0.85311    0.87006   1.00
H2       0.47619    0.89774    0.89263   1.00
H2       0.49166    0.88784    0.84497   1.00
H2       0.50956    0.87099    0.94931   1.00
H2       0.49378    0.82407    0.93513   1.00
H2       0.54343    0.83280    0.94618   1.00
C4       1.02084    0.74698    0.74960   1.00
C4       0.97912    0.74741    0.75019   1.00
C3       1.04364    0.71558    0.76411   1.00
C3       0.95616    0.71818    0.76850   1.00
C3       1.04123    0.77991    0.73425   1.00
C3       0.95886    0.77860    0.73143   1.00
C2       1.10512    0.74917    0.74913   1.00
C2       0.89488    0.75083    0.75087   1.00
C3       1.08462    0.71671    0.76410   1.00
C3       0.91519    0.71962    0.76853   1.00
C3       1.08258    0.78017    0.73383   1.00
C3       0.91762    0.78039    0.73324   1.00
H1       1.03115    0.69090    0.77499   1.00
H1       0.96852    0.69510    0.78257   1.00
C5       1.02020    0.81227    0.71926   1.00
C5       0.97980    0.80803    0.71128   1.00
H1       1.09955    0.69325    0.77524   1.00
H1       0.90010    0.69749    0.78194   1.00
H1       1.09680    0.80351    0.72174   1.00
H1       0.90368    0.80418    0.72184   1.00
O3       1.03961    0.84640    0.71058   1.00
O3       0.96099    0.83385    0.68665   1.00
Si1      1.04247    0.88100    0.74322   1.00
Si1      0.95279    0.82082    0.64159   1.00
C6       1.07538    0.91123    0.71759   1.00
C6       0.99598    0.90276    0.74669   1.00
C6       1.06253    0.86520    0.78796   1.00
C6       0.96693    0.77342    0.62691   1.00
C6       0.90198    0.82560    0.63717   1.00
C6       0.97477    0.85607    0.61132   1.00
C6       1.11194    0.89032    0.69972   1.00
H2       1.05791    0.92050    0.69259   1.00
C6       1.09147    0.94983    0.73631   1.00
H2       0.98358    0.89639    0.71807   1.00
C6       0.96634    0.88592    0.77706   1.00
C6       0.99336    0.94812    0.75137   1.00
H2       1.08831    0.84902    0.77842   1.00
C6       1.07772    0.89741    0.81665   1.00
C6       1.03849    0.83677    0.81476   1.00
C6       1.01071    0.76156    0.63192   1.00
C6       0.94225    0.73736    0.64033   1.00
H2       0.96212    0.77441    0.59544   1.00
H2       0.89051    0.80189    0.65506   1.00
C6       0.88378    0.86377    0.65450   1.00
C6       0.88393    0.82028    0.59559   1.00
H2       0.95375    0.88001    0.61081   1.00
C6       1.01336    0.87463    0.62668   1.00
C6       0.98244    0.84513    0.56761   1.00
H2       1.10346    0.86621    0.68067   1.00
H2       1.13090    0.87865    0.72256   1.00
H2       1.12917    0.91040    0.68190   1.00
H2       1.09608    0.97185    0.71368   1.00
H2       1.07178    0.96229    0.75783   1.00
H2       1.11964    0.94551    0.75058   1.00
H2       0.93672    0.89598    0.77071   1.00
H2       0.96532    0.85420    0.77643   1.00
H2       0.97352    0.89534    0.80663   1.00
H2       1.00862    0.96315    0.72780   1.00
H2       0.96308    0.95818    0.75016   1.00
H2       1.00550    0.95753    0.77930   1.00
H2       1.05514    0.91911    0.82258   1.00
H2       1.08708    0.88515    0.84461   1.00
H2       1.10332    0.91206    0.80504   1.00
H2       1.01902    0.85248    0.83447   1.00
H2       1.02068    0.81625    0.79862   1.00
H2       1.05828    0.81951    0.83291   1.00
H2       1.01688    0.75152    0.66144   1.00
H2       1.01809    0.73758    0.61220   1.00
H2       1.03048    0.78549    0.62523   1.00
H2       0.95125    0.71109    0.62457   1.00
H2       0.94574    0.73120    0.67127   1.00
H2       0.91122    0.74114    0.63434   1.00
H2       0.85202    0.86110    0.65640   1.00
H2       0.89435    0.86932    0.68407   1.00
H2       0.89035    0.88930    0.63665   1.00
H2       0.89416    0.79356    0.58162   1.00
H2       0.85212    0.81821    0.59745   1.00
H2       0.89085    0.84496    0.57665   1.00
H2       1.03656    0.85311    0.62994   1.00
H2       1.02381    0.89774    0.60737   1.00
H2       1.00834    0.88784    0.65503   1.00
H2       0.99044    0.87099    0.55069   1.00
H2       1.00622    0.82407    0.56487   1.00
H2       0.95657    0.83280    0.55382   1.00
C4       0.75040    0.47916    0.74698   1.00
C4       0.74981    0.52088    0.74741   1.00
C3       0.73589    0.45636    0.71558   1.00
C3       0.73150    0.54384    0.71818   1.00
C3       0.76575    0.45877    0.77991   1.00
C3       0.76857    0.54114    0.77860   1.00
C2       0.75087    0.39488    0.74917   1.00
C2       0.74913    0.60512    0.75083   1.00
C3       0.73590    0.41538    0.71671   1.00
C3       0.73147    0.58481    0.71962   1.00
C3       0.76617    0.41742    0.78017   1.00
C3       0.76676    0.58238    0.78039   1.00
H1       0.72501    0.46885    0.69090   1.00
H1       0.71743    0.53148    0.69510   1.00
C5       0.78074    0.47980    0.81227   1.00
C5       0.78872    0.52020    0.80803   1.00
H1       0.72476    0.40045    0.69325   1.00
H1       0.71806    0.59990    0.69749   1.00
H1       0.77826    0.40320    0.80351   1.00
H1       0.77816    0.59632    0.80418   1.00
O3       0.78942    0.46039    0.84640   1.00
O3       0.81335    0.53901    0.83385   1.00
Si1      0.75678    0.45753    0.88100   1.00
Si1      0.85841    0.54721    0.82082   1.00
C6       0.78241    0.42462    0.91123   1.00
C6       0.75331    0.50402    0.90276   1.00
C6       0.71204    0.43747    0.86520   1.00
C6       0.87309    0.53307    0.77342   1.00
C6       0.86283    0.59802    0.82560   1.00
C6       0.88868    0.52523    0.85607   1.00
C6       0.80028    0.38806    0.89032   1.00
H2       0.80741    0.44209    0.92050   1.00
C6       0.76369    0.40853    0.94983   1.00
H2       0.78193    0.51642    0.89639   1.00
C6       0.72294    0.53366    0.88592   1.00
C6       0.74863    0.50664    0.94812   1.00
H2       0.72158    0.41169    0.84902   1.00
C6       0.68335    0.42228    0.89741   1.00
C6       0.68524    0.46151    0.83677   1.00
C6       0.86808    0.48929    0.76156   1.00
C6       0.85967    0.55775    0.73736   1.00
H2       0.90456    0.53788    0.77441   1.00
H2       0.84494    0.60949    0.80189   1.00
C6       0.84550    0.61622    0.86377   1.00
C6       0.90441    0.61607    0.82028   1.00
H2       0.88919    0.54625    0.88001   1.00
C6       0.87332    0.48664    0.87463   1.00
C6       0.93239    0.51756    0.84513   1.00
H2       0.81933    0.39654    0.86621   1.00
H2       0.77744    0.36910    0.87865   1.00
H2       0.81810    0.37083    0.91040   1.00
H2       0.78632    0.40392    0.97185   1.00
H2       0.74217    0.42822    0.96229   1.00
H2       0.74942    0.38036    0.94551   1.00
H2       0.72929    0.56328    0.89598   1.00
H2       0.72357    0.53468    0.85420   1.00
H2       0.69337    0.52648    0.89534   1.00
H2       0.77220    0.49138    0.96315   1.00
H2       0.74984    0.53692    0.95818   1.00
H2       0.72070    0.49450    0.95753   1.00
H2       0.67742    0.44486    0.91911   1.00
H2       0.65539    0.41292    0.88515   1.00
H2       0.69496    0.39668    0.91206   1.00
H2       0.66553    0.48098    0.85248   1.00
H2       0.70138    0.47932    0.81625   1.00
H2       0.66709    0.44172    0.81951   1.00
H2       0.83856    0.48312    0.75152   1.00
H2       0.88780    0.48191    0.73758   1.00
H2       0.87477    0.46952    0.78549   1.00
H2       0.87543    0.54875    0.71109   1.00
H2       0.82873    0.55426    0.73120   1.00
H2       0.86566    0.58878    0.74114   1.00
H2       0.84360    0.64798    0.86110   1.00
H2       0.81593    0.60565    0.86932   1.00
H2       0.86335    0.60965    0.88930   1.00
H2       0.91838    0.60584    0.79356   1.00
H2       0.90255    0.64788    0.81821   1.00
H2       0.92335    0.60915    0.84496   1.00
H2       0.87006    0.46344    0.85311   1.00
H2       0.89263    0.47619    0.89774   1.00
H2       0.84497    0.49166    0.88784   1.00
H2       0.94931    0.50956    0.87099   1.00
H2       0.93513    0.49378    0.82407   1.00
H2       0.94618    0.54343    0.83280   1.00
C4       0.74698    0.75040    0.47916   1.00
C4       0.74741    0.74981    0.52088   1.00
C3       0.71558    0.73589    0.45636   1.00
C3       0.71818    0.73150    0.54384   1.00
C3       0.77991    0.76575    0.45877   1.00
C3       0.77860    0.76857    0.54114   1.00
C2       0.74917    0.75087    0.39488   1.00
C2       0.75083    0.74913    0.60512   1.00
C3       0.71671    0.73590    0.41538   1.00
C3       0.71962    0.73147    0.58481   1.00
C3       0.78017    0.76617    0.41742   1.00
C3       0.78039    0.76676    0.58238   1.00
H1       0.69090    0.72501    0.46885   1.00
H1       0.69510    0.71743    0.53148   1.00
C5       0.81227    0.78074    0.47980   1.00
C5       0.80803    0.78872    0.52020   1.00
H1       0.69325    0.72476    0.40045   1.00
H1       0.69749    0.71806    0.59990   1.00
H1       0.80351    0.77826    0.40320   1.00
H1       0.80418    0.77816    0.59632   1.00
O3       0.84640    0.78942    0.46039   1.00
O3       0.83385    0.81335    0.53901   1.00
Si1      0.88100    0.75678    0.45753   1.00
Si1      0.82082    0.85841    0.54721   1.00
C6       0.91123    0.78241    0.42462   1.00
C6       0.90276    0.75331    0.50402   1.00
C6       0.86520    0.71204    0.43747   1.00
C6       0.77342    0.87309    0.53307   1.00
C6       0.82560    0.86283    0.59802   1.00
C6       0.85607    0.88868    0.52523   1.00
C6       0.89032    0.80028    0.38806   1.00
H2       0.92050    0.80741    0.44209   1.00
C6       0.94983    0.76369    0.40853   1.00
H2       0.89639    0.78193    0.51642   1.00
C6       0.88592    0.72294    0.53366   1.00
C6       0.94812    0.74863    0.50664   1.00
H2       0.84902    0.72158    0.41169   1.00
C6       0.89741    0.68335    0.42228   1.00
C6       0.83677    0.68524    0.46151   1.00
C6       0.76156    0.86808    0.48929   1.00
C6       0.73736    0.85967    0.55775   1.00
H2       0.77441    0.90456    0.53788   1.00
H2       0.80189    0.84494    0.60949   1.00
C6       0.86377    0.84550    0.61622   1.00
C6       0.82028    0.90441    0.61607   1.00
H2       0.88001    0.88919    0.54625   1.00
C6       0.87463    0.87332    0.48664   1.00
C6       0.84513    0.93239    0.51756   1.00
H2       0.86621    0.81933    0.39654   1.00
H2       0.87865    0.77744    0.36910   1.00
H2       0.91040    0.81810    0.37083   1.00
H2       0.97185    0.78632    0.40392   1.00
H2       0.96229    0.74217    0.42822   1.00
H2       0.94551    0.74942    0.38036   1.00
H2       0.89598    0.72929    0.56328   1.00
H2       0.85420    0.72357    0.53468   1.00
H2       0.89534    0.69337    0.52648   1.00
H2       0.96315    0.77220    0.49138   1.00
H2       0.95818    0.74984    0.53692   1.00
H2       0.95753    0.72070    0.49450   1.00
H2       0.91911    0.67742    0.44486   1.00
H2       0.88515    0.65539    0.41292   1.00
H2       0.91206    0.69496    0.39668   1.00
H2       0.85248    0.66553    0.48098   1.00
H2       0.81625    0.70138    0.47932   1.00
H2       0.81951    0.66709    0.44172   1.00
H2       0.75152    0.83856    0.48312   1.00
H2       0.73758    0.88780    0.48191   1.00
H2       0.78549    0.87477    0.46952   1.00
H2       0.71109    0.87543    0.54875   1.00
H2       0.73120    0.82873    0.55426   1.00
H2       0.74114    0.86566    0.58878   1.00
H2       0.86110    0.84360    0.64798   1.00
H2       0.86932    0.81593    0.60565   1.00
H2       0.88930    0.86335    0.60965   1.00
H2       0.79356    0.91838    0.60584   1.00
H2       0.81821    0.90255    0.64788   1.00
H2       0.84496    0.92335    0.60915   1.00
H2       0.85311    0.87006    0.46344   1.00
H2       0.89774    0.89263    0.47619   1.00
H2       0.88784    0.84497    0.49166   1.00
H2       0.87099    0.94931    0.50956   1.00
H2       0.82407    0.93513    0.49378   1.00
H2       0.83280    0.94618    0.54343   1.00
C4       0.24698    0.24960    1.02084   1.00
C4       0.24741    0.25019    0.97912   1.00
C3       0.21558    0.26411    1.04364   1.00
C3       0.21818    0.26850    0.95616   1.00
C3       0.27991    0.23425    1.04123   1.00
C3       0.27860    0.23143    0.95886   1.00
C2       0.24917    0.24913    1.10512   1.00
C2       0.25083    0.25087    0.89488   1.00
C3       0.21671    0.26410    1.08462   1.00
C3       0.21962    0.26853    0.91519   1.00
C3       0.28017    0.23383    1.08258   1.00
C3       0.28039    0.23324    0.91762   1.00
H1       0.19090    0.27499    1.03115   1.00
H1       0.19510    0.28257    0.96852   1.00
C5       0.31227    0.21926    1.02020   1.00
C5       0.30803    0.21128    0.97980   1.00
H1       0.19325    0.27524    1.09955   1.00
H1       0.19749    0.28194    0.90010   1.00
H1       0.30351    0.22174    1.09680   1.00
H1       0.30418    0.22184    0.90368   1.00
O3       0.34640    0.21058    1.03961   1.00
O3       0.33385    0.18665    0.96099   1.00
Si1      0.38100    0.24322    1.04247   1.00
Si1      0.32082    0.14159    0.95279   1.00
C6       0.41123    0.21759    1.07538   1.00
C6       0.40276    0.24669    0.99598   1.00
C6       0.36520    0.28796    1.06253   1.00
C6       0.27342    0.12691    0.96693   1.00
C6       0.32560    0.13717    0.90198   1.00
C6       0.35607    0.11132    0.97477   1.00
C6       0.39032    0.19972    1.11194   1.00
H2       0.42050    0.19259    1.05791   1.00
C6       0.44983    0.23631    1.09147   1.00
H2       0.39639    0.21807    0.98358   1.00
C6       0.38592    0.27706    0.96634   1.00
C6       0.44812    0.25137    0.99336   1.00
H2       0.34902    0.27842    1.08831   1.00
C6       0.39741    0.31665    1.07772   1.00
C6       0.33677    0.31476    1.03849   1.00
C6       0.26156    0.13192    1.01071   1.00
C6       0.23736    0.14033    0.94225   1.00
H2       0.27441    0.09544    0.96212   1.00
H2       0.30189    0.15506    0.89051   1.00
C6       0.36377    0.15450    0.88378   1.00
C6       0.32028    0.09559    0.88393   1.00
H2       0.38001    0.11081    0.95375   1.00
C6       0.37463    0.12668    1.01336   1.00
C6       0.34513    0.06761    0.98244   1.00
H2       0.36621    0.18067    1.10346   1.00
H2       0.37865    0.22256    1.13090   1.00
H2       0.41040    0.18190    1.12917   1.00
H2       0.47185    0.21368    1.09608   1.00
H2       0.46229    0.25783    1.07178   1.00
H2       0.44551    0.25058    1.11964   1.00
H2       0.39598    0.27071    0.93672   1.00
H2       0.35420    0.27643    0.96532   1.00
H2       0.39534    0.30663    0.97352   1.00
H2       0.46315    0.22780    1.00862   1.00
H2       0.45818    0.25016    0.96308   1.00
H2       0.45753    0.27930    1.00550   1.00
H2       0.41911    0.32258    1.05514   1.00
H2       0.38515    0.34461    1.08708   1.00
H2       0.41206    0.30504    1.10332   1.00
H2       0.35248    0.33447    1.01902   1.00
H2       0.31625    0.29862    1.02068   1.00
H2       0.31951    0.33291    1.05828   1.00
H2       0.25152    0.16144    1.01688   1.00
H2       0.23758    0.11220    1.01809   1.00
H2       0.28549    0.12523    1.03048   1.00
H2       0.21109    0.12457    0.95125   1.00
H2       0.23120    0.17127    0.94574   1.00
H2       0.24114    0.13434    0.91122   1.00
H2       0.36110    0.15640    0.85202   1.00
H2       0.36932    0.18407    0.89435   1.00
H2       0.38930    0.13665    0.89035   1.00
H2       0.29356    0.08162    0.89416   1.00
H2       0.31821    0.09745    0.85212   1.00
H2       0.34496    0.07665    0.89085   1.00
H2       0.35311    0.12994    1.03656   1.00
H2       0.39774    0.10737    1.02381   1.00
H2       0.38784    0.15503    1.00834   1.00
H2       0.37099    0.05069    0.99044   1.00
H2       0.32407    0.06487    1.00622   1.00
H2       0.33280    0.05382    0.95657   1.00
C4       0.24960    0.52084    0.74698   1.00
C4       0.25019    0.47912    0.74741   1.00
C3       0.26411    0.54364    0.71558   1.00
C3       0.26850    0.45616    0.71818   1.00
C3       0.23425    0.54123    0.77991   1.00
C3       0.23143    0.45886    0.77860   1.00
C2       0.24913    0.60512    0.74917   1.00
C2       0.25087    0.39488    0.75083   1.00
C3       0.26410    0.58462    0.71671   1.00
C3       0.26853    0.41519    0.71962   1.00
C3       0.23383    0.58258    0.78017   1.00
C3       0.23324    0.41762    0.78039   1.00
H1       0.27499    0.53115    0.69090   1.00
H1       0.28257    0.46852    0.69510   1.00
C5       0.21926    0.52020    0.81227   1.00
C5       0.21128    0.47980    0.80803   1.00
H1       0.27524    0.59955    0.69325   1.00
H1       0.28194    0.40010    0.69749   1.00
H1       0.22174    0.59680    0.80351   1.00
H1       0.22184    0.40368    0.80418   1.00
O3       0.21058    0.53961    0.84640   1.00
O3       0.18665    0.46099    0.83385   1.00
Si1      0.24322    0.54247    0.88100   1.00
Si1      0.14159    0.45279    0.82082   1.00
C6       0.21759    0.57538    0.91123   1.00
C6       0.24669    0.49598    0.90276   1.00
C6       0.28796    0.56253    0.86520   1.00
C6       0.12691    0.46693    0.77342   1.00
C6       0.13717    0.40198    0.82560   1.00
C6       0.11132    0.47477    0.85607   1.00
C6       0.19972    0.61194    0.89032   1.00
H2       0.19259    0.55791    0.92050   1.00
C6       0.23631    0.59147    0.94983   1.00
H2       0.21807    0.48358    0.89639   1.00
C6       0.27706    0.46634    0.88592   1.00
C6       0.25137    0.49336    0.94812   1.00
H2       0.27842    0.58831    0.84902   1.00
C6       0.31665    0.57772    0.89741   1.00
C6       0.31476    0.53849    0.83677   1.00
C6       0.13192    0.51071    0.76156   1.00
C6       0.14033    0.44225    0.73736   1.00
H2       0.09544    0.46212    0.77441   1.00
H2       0.15506    0.39051    0.80189   1.00
C6       0.15450    0.38378    0.86377   1.00
C6       0.09559    0.38393    0.82028   1.00
H2       0.11081    0.45375    0.88001   1.00
C6       0.12668    0.51336    0.87463   1.00
C6       0.06761    0.48244    0.84513   1.00
H2       0.18067    0.60346    0.86621   1.00
H2       0.22256    0.63090    0.87865   1.00
H2       0.18190    0.62917    0.91040   1.00
H2       0.21368    0.59608    0.97185   1.00
H2       0.25783    0.57178    0.96229   1.00
H2       0.25058    0.61964    0.94551   1.00
H2       0.27071    0.43672    0.89598   1.00
H2       0.27643    0.46532    0.85420   1.00
H2       0.30663    0.47352    0.89534   1.00
H2       0.22780    0.50862    0.96315   1.00
H2       0.25016    0.46308    0.95818   1.00
H2       0.27930    0.50550    0.95753   1.00
H2       0.32258    0.55514    0.91911   1.00
H2       0.34461    0.58708    0.88515   1.00
H2       0.30504    0.60332    0.91206   1.00
H2       0.33447    0.51902    0.85248   1.00
H2       0.29862    0.52068    0.81625   1.00
H2       0.33291    0.55828    0.81951   1.00
H2       0.16144    0.51688    0.75152   1.00
H2       0.11220    0.51809    0.73758   1.00
H2       0.12523    0.53048    0.78549   1.00
H2       0.12457    0.45125    0.71109   1.00
H2       0.17127    0.44574    0.73120   1.00
H2       0.13434    0.41122    0.74114   1.00
H2       0.15640    0.35202    0.86110   1.00
H2       0.18407    0.39435    0.86932   1.00
H2       0.13665    0.39035    0.88930   1.00
H2       0.08162    0.39416    0.79356   1.00
H2       0.09745    0.35212    0.81821   1.00
H2       0.07665    0.39085    0.84496   1.00
H2       0.12994    0.53656    0.85311   1.00
H2       0.10737    0.52381    0.89774   1.00
H2       0.15503    0.50834    0.88784   1.00
H2       0.05069    0.49044    0.87099   1.00
H2       0.06487    0.50622    0.82407   1.00
H2       0.05382    0.45657    0.83280   1.00
C4       -0.02084   0.24698    0.75040   1.00
C4       0.02088    0.24741    0.74981   1.00
C3       -0.04364   0.21558    0.73589   1.00
C3       0.04384    0.21818    0.73150   1.00
C3       -0.04123   0.27991    0.76575   1.00
C3       0.04114    0.27860    0.76857   1.00
C2       -0.10512   0.24917    0.75087   1.00
C2       0.10512    0.25083    0.74913   1.00
C3       -0.08462   0.21671    0.73590   1.00
C3       0.08481    0.21962    0.73147   1.00
C3       -0.08258   0.28017    0.76617   1.00
C3       0.08238    0.28039    0.76676   1.00
H1       -0.03115   0.19090    0.72501   1.00
H1       0.03148    0.19510    0.71743   1.00
C5       -0.02020   0.31227    0.78074   1.00
C5       0.02020    0.30803    0.78872   1.00
H1       -0.09955   0.19325    0.72476   1.00
H1       0.09990    0.19749    0.71806   1.00
H1       -0.09680   0.30351    0.77826   1.00
H1       0.09632    0.30418    0.77816   1.00
O3       -0.03961   0.34640    0.78942   1.00
O3       0.03901    0.33385    0.81335   1.00
Si1      -0.04247   0.38100    0.75678   1.00
Si1      0.04721    0.32082    0.85841   1.00
C6       -0.07538   0.41123    0.78241   1.00
C6       0.00402    0.40276    0.75331   1.00
C6       -0.06253   0.36520    0.71204   1.00
C6       0.03307    0.27342    0.87309   1.00
C6       0.09802    0.32560    0.86283   1.00
C6       0.02523    0.35607    0.88868   1.00
C6       -0.11194   0.39032    0.80028   1.00
H2       -0.05791   0.42050    0.80741   1.00
C6       -0.09147   0.44983    0.76369   1.00
H2       0.01642    0.39639    0.78193   1.00
C6       0.03366    0.38592    0.72294   1.00
C6       0.00664    0.44812    0.74863   1.00
H2       -0.08831   0.34902    0.72158   1.00
C6       -0.07772   0.39741    0.68335   1.00
C6       -0.03849   0.33677    0.68524   1.00
C6       -0.01071   0.26156    0.86808   1.00
C6       0.05775    0.23736    0.85967   1.00
H2       0.03788    0.27441    0.90456   1.00
H2       0.10949    0.30189    0.84494   1.00
C6       0.11622    0.36377    0.84550   1.00
C6       0.11607    0.32028    0.90441   1.00
H2       0.04625    0.38001    0.88919   1.00
C6       -0.01336   0.37463    0.87332   1.00
C6       0.01756    0.34513    0.93239   1.00
H2       -0.10346   0.36621    0.81933   1.00
H2       -0.13090   0.37865    0.77744   1.00
H2       -0.12917   0.41040    0.81810   1.00
H2       -0.09608   0.47185    0.78632   1.00
H2       -0.07178   0.46229    0.74217   1.00
H2       -0.11964   0.44551    0.74942   1.00
H2       0.06328    0.39598    0.72929   1.00
H2       0.03468    0.35420    0.72357   1.00
H2       0.02648    0.39534    0.69337   1.00
H2       -0.00862   0.46315    0.77220   1.00
H2       0.03692    0.45818    0.74984   1.00
H2       -0.00550   0.45753    0.72070   1.00
H2       -0.05514   0.41911    0.67742   1.00
H2       -0.08708   0.38515    0.65539   1.00
H2       -0.10332   0.41206    0.69496   1.00
H2       -0.01902   0.35248    0.66553   1.00
H2       -0.02068   0.31625    0.70138   1.00
H2       -0.05828   0.31951    0.66709   1.00
H2       -0.01688   0.25152    0.83856   1.00
H2       -0.01809   0.23758    0.88780   1.00
H2       -0.03048   0.28549    0.87477   1.00
H2       0.04875    0.21109    0.87543   1.00
H2       0.05426    0.23120    0.82873   1.00
H2       0.08878    0.24114    0.86566   1.00
H2       0.14798    0.36110    0.84360   1.00
H2       0.10565    0.36932    0.81593   1.00
H2       0.10965    0.38930    0.86335   1.00
H2       0.10584    0.29356    0.91838   1.00
H2       0.14788    0.31821    0.90255   1.00
H2       0.10915    0.34496    0.92335   1.00
H2       -0.03656   0.35311    0.87006   1.00
H2       -0.02381   0.39774    0.89263   1.00
H2       -0.00834   0.38784    0.84497   1.00
H2       0.00956    0.37099    0.94931   1.00
H2       -0.00622   0.32407    0.93513   1.00
H2       0.04343    0.33280    0.94618   1.00
C4       0.52084    0.24698    0.74960   1.00
C4       0.47912    0.24741    0.75019   1.00
C3       0.54364    0.21558    0.76411   1.00
C3       0.45616    0.21818    0.76850   1.00
C3       0.54123    0.27991    0.73425   1.00
C3       0.45886    0.27860    0.73143   1.00
C2       0.60512    0.24917    0.74913   1.00
C2       0.39488    0.25083    0.75087   1.00
C3       0.58462    0.21671    0.76410   1.00
C3       0.41519    0.21962    0.76853   1.00
C3       0.58258    0.28017    0.73383   1.00
C3       0.41762    0.28039    0.73324   1.00
H1       0.53115    0.19090    0.77499   1.00
H1       0.46852    0.19510    0.78257   1.00
C5       0.52020    0.31227    0.71926   1.00
C5       0.47980    0.30803    0.71128   1.00
H1       0.59955    0.19325    0.77524   1.00
H1       0.40010    0.19749    0.78194   1.00
H1       0.59680    0.30351    0.72174   1.00
H1       0.40368    0.30418    0.72184   1.00
O3       0.53961    0.34640    0.71058   1.00
O3       0.46099    0.33385    0.68665   1.00
Si1      0.54247    0.38100    0.74322   1.00
Si1      0.45279    0.32082    0.64159   1.00
C6       0.57538    0.41123    0.71759   1.00
C6       0.49598    0.40276    0.74669   1.00
C6       0.56253    0.36520    0.78796   1.00
C6       0.46693    0.27342    0.62691   1.00
C6       0.40198    0.32560    0.63717   1.00
C6       0.47477    0.35607    0.61132   1.00
C6       0.61194    0.39032    0.69972   1.00
H2       0.55791    0.42050    0.69259   1.00
C6       0.59147    0.44983    0.73631   1.00
H2       0.48358    0.39639    0.71807   1.00
C6       0.46634    0.38592    0.77706   1.00
C6       0.49336    0.44812    0.75137   1.00
H2       0.58831    0.34902    0.77842   1.00
C6       0.57772    0.39741    0.81665   1.00
C6       0.53849    0.33677    0.81476   1.00
C6       0.51071    0.26156    0.63192   1.00
C6       0.44225    0.23736    0.64033   1.00
H2       0.46212    0.27441    0.59544   1.00
H2       0.39051    0.30189    0.65506   1.00
C6       0.38378    0.36377    0.65450   1.00
C6       0.38393    0.32028    0.59559   1.00
H2       0.45375    0.38001    0.61081   1.00
C6       0.51336    0.37463    0.62668   1.00
C6       0.48244    0.34513    0.56761   1.00
H2       0.60346    0.36621    0.68067   1.00
H2       0.63090    0.37865    0.72256   1.00
H2       0.62917    0.41040    0.68190   1.00
H2       0.59608    0.47185    0.71368   1.00
H2       0.57178    0.46229    0.75783   1.00
H2       0.61964    0.44551    0.75058   1.00
H2       0.43672    0.39598    0.77071   1.00
H2       0.46532    0.35420    0.77643   1.00
H2       0.47352    0.39534    0.80663   1.00
H2       0.50862    0.46315    0.72780   1.00
H2       0.46308    0.45818    0.75016   1.00
H2       0.50550    0.45753    0.77930   1.00
H2       0.55514    0.41911    0.82258   1.00
H2       0.58708    0.38515    0.84461   1.00
H2       0.60332    0.41206    0.80504   1.00
H2       0.51902    0.35248    0.83447   1.00
H2       0.52068    0.31625    0.79862   1.00
H2       0.55828    0.31951    0.83291   1.00
H2       0.51688    0.25152    0.66144   1.00
H2       0.51809    0.23758    0.61220   1.00
H2       0.53048    0.28549    0.62523   1.00
H2       0.45125    0.21109    0.62457   1.00
H2       0.44574    0.23120    0.67127   1.00
H2       0.41122    0.24114    0.63434   1.00
H2       0.35202    0.36110    0.65640   1.00
H2       0.39435    0.36932    0.68407   1.00
H2       0.39035    0.38930    0.63665   1.00
H2       0.39416    0.29356    0.58162   1.00
H2       0.35212    0.31821    0.59745   1.00
H2       0.39085    0.34496    0.57665   1.00
H2       0.53656    0.35311    0.62994   1.00
H2       0.52381    0.39774    0.60737   1.00
H2       0.50834    0.38784    0.65503   1.00
H2       0.49044    0.37099    0.55069   1.00
H2       0.50622    0.32407    0.56487   1.00
H2       0.45657    0.33280    0.55382   1.00
C4       0.25040    -0.02084   0.74698   1.00
C4       0.24981    0.02088    0.74741   1.00
C3       0.23589    -0.04364   0.71558   1.00
C3       0.23150    0.04384    0.71818   1.00
C3       0.26575    -0.04123   0.77991   1.00
C3       0.26857    0.04114    0.77860   1.00
C2       0.25087    -0.10512   0.74917   1.00
C2       0.24913    0.10512    0.75083   1.00
C3       0.23590    -0.08462   0.71671   1.00
C3       0.23147    0.08481    0.71962   1.00
C3       0.26617    -0.08258   0.78017   1.00
C3       0.26676    0.08238    0.78039   1.00
H1       0.22501    -0.03115   0.69090   1.00
H1       0.21743    0.03148    0.69510   1.00
C5       0.28074    -0.02020   0.81227   1.00
C5       0.28872    0.02020    0.80803   1.00
H1       0.22476    -0.09955   0.69325   1.00
H1       0.21806    0.09990    0.69749   1.00
H1       0.27826    -0.09680   0.80351   1.00
H1       0.27816    0.09632    0.80418   1.00
O3       0.28942    -0.03961   0.84640   1.00
O3       0.31335    0.03901    0.83385   1.00
Si1      0.25678    -0.04247   0.88100   1.00
Si1      0.35841    0.04721    0.82082   1.00
C6       0.28241    -0.07538   0.91123   1.00
C6       0.25331    0.00402    0.90276   1.00
C6       0.21204    -0.06253   0.86520   1.00
C6       0.37309    0.03307    0.77342   1.00
C6       0.36283    0.09802    0.82560   1.00
C6       0.38868    0.02523    0.85607   1.00
C6       0.30028    -0.11194   0.89032   1.00
H2       0.30741    -0.05791   0.92050   1.00
C6       0.26369    -0.09147   0.94983   1.00
H2       0.28193    0.01642    0.89639   1.00
C6       0.22294    0.03366    0.88592   1.00
C6       0.24863    0.00664    0.94812   1.00
H2       0.22158    -0.08831   0.84902   1.00
C6       0.18335    -0.07772   0.89741   1.00
C6       0.18524    -0.03849   0.83677   1.00
C6       0.36808    -0.01071   0.76156   1.00
C6       0.35967    0.05775    0.73736   1.00
H2       0.40456    0.03788    0.77441   1.00
H2       0.34494    0.10949    0.80189   1.00
C6       0.34550    0.11622    0.86377   1.00
C6       0.40441    0.11607    0.82028   1.00
H2       0.38919    0.04625    0.88001   1.00
C6       0.37332    -0.01336   0.87463   1.00
C6       0.43239    0.01756    0.84513   1.00
H2       0.31933    -0.10346   0.86621   1.00
H2       0.27744    -0.13090   0.87865   1.00
H2       0.31810    -0.12917   0.91040   1.00
H2       0.28632    -0.09608   0.97185   1.00
H2       0.24217    -0.07178   0.96229   1.00
H2       0.24942    -0.11964   0.94551   1.00
H2       0.22929    0.06328    0.89598   1.00
H2       0.22357    0.03468    0.85420   1.00
H2       0.19337    0.02648    0.89534   1.00
H2       0.27220    -0.00862   0.96315   1.00
H2       0.24984    0.03692    0.95818   1.00
H2       0.22070    -0.00550   0.95753   1.00
H2       0.17742    -0.05514   0.91911   1.00
H2       0.15539    -0.08708   0.88515   1.00
H2       0.19496    -0.10332   0.91206   1.00
H2       0.16553    -0.01902   0.85248   1.00
H2       0.20138    -0.02068   0.81625   1.00
H2       0.16709    -0.05828   0.81951   1.00
H2       0.33856    -0.01688   0.75152   1.00
H2       0.38780    -0.01809   0.73758   1.00
H2       0.37477    -0.03048   0.78549   1.00
H2       0.37543    0.04875    0.71109   1.00
H2       0.32873    0.05426    0.73120   1.00
H2       0.36566    0.08878    0.74114   1.00
H2       0.34360    0.14798    0.86110   1.00
H2       0.31593    0.10565    0.86932   1.00
H2       0.36335    0.10965    0.88930   1.00
H2       0.41838    0.10584    0.79356   1.00
H2       0.40255    0.14788    0.81821   1.00
H2       0.42335    0.10915    0.84496   1.00
H2       0.37006    -0.03656   0.85311   1.00
H2       0.39263    -0.02381   0.89774   1.00
H2       0.34497    -0.00834   0.88784   1.00
H2       0.44931    0.00956    0.87099   1.00
H2       0.43513    -0.00622   0.82407   1.00
H2       0.44618    0.04343    0.83280   1.00
C4       0.24698    0.25040    0.47916   1.00
C4       0.24741    0.24981    0.52088   1.00
C3       0.21558    0.23589    0.45636   1.00
C3       0.21818    0.23150    0.54384   1.00
C3       0.27991    0.26575    0.45877   1.00
C3       0.27860    0.26857    0.54114   1.00
C2       0.24917    0.25087    0.39488   1.00
C2       0.25083    0.24913    0.60512   1.00
C3       0.21671    0.23590    0.41538   1.00
C3       0.21962    0.23147    0.58481   1.00
C3       0.28017    0.26617    0.41742   1.00
C3       0.28039    0.26676    0.58238   1.00
H1       0.19090    0.22501    0.46885   1.00
H1       0.19510    0.21743    0.53148   1.00
C5       0.31227    0.28074    0.47980   1.00
C5       0.30803    0.28872    0.52020   1.00
H1       0.19325    0.22476    0.40045   1.00
H1       0.19749    0.21806    0.59990   1.00
H1       0.30351    0.27826    0.40320   1.00
H1       0.30418    0.27816    0.59632   1.00
O3       0.34640    0.28942    0.46039   1.00
O3       0.33385    0.31335    0.53901   1.00
Si1      0.38100    0.25678    0.45753   1.00
Si1      0.32082    0.35841    0.54721   1.00
C6       0.41123    0.28241    0.42462   1.00
C6       0.40276    0.25331    0.50402   1.00
C6       0.36520    0.21204    0.43747   1.00
C6       0.27342    0.37309    0.53307   1.00
C6       0.32560    0.36283    0.59802   1.00
C6       0.35607    0.38868    0.52523   1.00
C6       0.39032    0.30028    0.38806   1.00
H2       0.42050    0.30741    0.44209   1.00
C6       0.44983    0.26369    0.40853   1.00
H2       0.39639    0.28193    0.51642   1.00
C6       0.38592    0.22294    0.53366   1.00
C6       0.44812    0.24863    0.50664   1.00
H2       0.34902    0.22158    0.41169   1.00
C6       0.39741    0.18335    0.42228   1.00
C6       0.33677    0.18524    0.46151   1.00
C6       0.26156    0.36808    0.48929   1.00
C6       0.23736    0.35967    0.55775   1.00
H2       0.27441    0.40456    0.53788   1.00
H2       0.30189    0.34494    0.60949   1.00
C6       0.36377    0.34550    0.61622   1.00
C6       0.32028    0.40441    0.61607   1.00
H2       0.38001    0.38919    0.54625   1.00
C6       0.37463    0.37332    0.48664   1.00
C6       0.34513    0.43239    0.51756   1.00
H2       0.36621    0.31933    0.39654   1.00
H2       0.37865    0.27744    0.36910   1.00
H2       0.41040    0.31810    0.37083   1.00
H2       0.47185    0.28632    0.40392   1.00
H2       0.46229    0.24217    0.42822   1.00
H2       0.44551    0.24942    0.38036   1.00
H2       0.39598    0.22929    0.56328   1.00
H2       0.35420    0.22357    0.53468   1.00
H2       0.39534    0.19337    0.52648   1.00
H2       0.46315    0.27220    0.49138   1.00
H2       0.45818    0.24984    0.53692   1.00
H2       0.45753    0.22070    0.49450   1.00
H2       0.41911    0.17742    0.44486   1.00
H2       0.38515    0.15539    0.41292   1.00
H2       0.41206    0.19496    0.39668   1.00
H2       0.35248    0.16553    0.48098   1.00
H2       0.31625    0.20138    0.47932   1.00
H2       0.31951    0.16709    0.44172   1.00
H2       0.25152    0.33856    0.48312   1.00
H2       0.23758    0.38780    0.48191   1.00
H2       0.28549    0.37477    0.46952   1.00
H2       0.21109    0.37543    0.54875   1.00
H2       0.23120    0.32873    0.55426   1.00
H2       0.24114    0.36566    0.58878   1.00
H2       0.36110    0.34360    0.64798   1.00
H2       0.36932    0.31593    0.60565   1.00
H2       0.38930    0.36335    0.60965   1.00
H2       0.29356    0.41838    0.60584   1.00
H2       0.31821    0.40255    0.64788   1.00
H2       0.34496    0.42335    0.60915   1.00
H2       0.35311    0.37006    0.46344   1.00
H2       0.39774    0.39263    0.47619   1.00
H2       0.38784    0.34497    0.49166   1.00
H2       0.37099    0.44931    0.50956   1.00
H2       0.32407    0.43513    0.49378   1.00
H2       0.33280    0.44618    0.54343   1.00
C4       0.24698    0.74960    0.52084   1.00
C4       0.24741    0.75019    0.47912   1.00
C3       0.21558    0.76411    0.54364   1.00
C3       0.21818    0.76850    0.45616   1.00
C3       0.27991    0.73425    0.54123   1.00
C3       0.27860    0.73143    0.45886   1.00
C2       0.24917    0.74913    0.60512   1.00
C2       0.25083    0.75087    0.39488   1.00
C3       0.21671    0.76410    0.58462   1.00
C3       0.21962    0.76853    0.41519   1.00
C3       0.28017    0.73383    0.58258   1.00
C3       0.28039    0.73324    0.41762   1.00
H1       0.19090    0.77499    0.53115   1.00
H1       0.19510    0.78257    0.46852   1.00
C5       0.31227    0.71926    0.52020   1.00
C5       0.30803    0.71128    0.47980   1.00
H1       0.19325    0.77524    0.59955   1.00
H1       0.19749    0.78194    0.40010   1.00
H1       0.30351    0.72174    0.59680   1.00
H1       0.30418    0.72184    0.40368   1.00
O3       0.34640    0.71058    0.53961   1.00
O3       0.33385    0.68665    0.46099   1.00
Si1      0.38100    0.74322    0.54247   1.00
Si1      0.32082    0.64159    0.45279   1.00
C6       0.41123    0.71759    0.57538   1.00
C6       0.40276    0.74669    0.49598   1.00
C6       0.36520    0.78796    0.56253   1.00
C6       0.27342    0.62691    0.46693   1.00
C6       0.32560    0.63717    0.40198   1.00
C6       0.35607    0.61132    0.47477   1.00
C6       0.39032    0.69972    0.61194   1.00
H2       0.42050    0.69259    0.55791   1.00
C6       0.44983    0.73631    0.59147   1.00
H2       0.39639    0.71807    0.48358   1.00
C6       0.38592    0.77706    0.46634   1.00
C6       0.44812    0.75137    0.49336   1.00
H2       0.34902    0.77842    0.58831   1.00
C6       0.39741    0.81665    0.57772   1.00
C6       0.33677    0.81476    0.53849   1.00
C6       0.26156    0.63192    0.51071   1.00
C6       0.23736    0.64033    0.44225   1.00
H2       0.27441    0.59544    0.46212   1.00
H2       0.30189    0.65506    0.39051   1.00
C6       0.36377    0.65450    0.38378   1.00
C6       0.32028    0.59559    0.38393   1.00
H2       0.38001    0.61081    0.45375   1.00
C6       0.37463    0.62668    0.51336   1.00
C6       0.34513    0.56761    0.48244   1.00
H2       0.36621    0.68067    0.60346   1.00
H2       0.37865    0.72256    0.63090   1.00
H2       0.41040    0.68190    0.62917   1.00
H2       0.47185    0.71368    0.59608   1.00
H2       0.46229    0.75783    0.57178   1.00
H2       0.44551    0.75058    0.61964   1.00
H2       0.39598    0.77071    0.43672   1.00
H2       0.35420    0.77643    0.46532   1.00
H2       0.39534    0.80663    0.47352   1.00
H2       0.46315    0.72780    0.50862   1.00
H2       0.45818    0.75016    0.46308   1.00
H2       0.45753    0.77930    0.50550   1.00
H2       0.41911    0.82258    0.55514   1.00
H2       0.38515    0.84461    0.58708   1.00
H2       0.41206    0.80504    0.60332   1.00
H2       0.35248    0.83447    0.51902   1.00
H2       0.31625    0.79862    0.52068   1.00
H2       0.31951    0.83291    0.55828   1.00
H2       0.25152    0.66144    0.51688   1.00
H2       0.23758    0.61220    0.51809   1.00
H2       0.28549    0.62523    0.53048   1.00
H2       0.21109    0.62457    0.45125   1.00
H2       0.23120    0.67127    0.44574   1.00
H2       0.24114    0.63434    0.41122   1.00
H2       0.36110    0.65640    0.35202   1.00
H2       0.36932    0.68407    0.39435   1.00
H2       0.38930    0.63665    0.39035   1.00
H2       0.29356    0.58162    0.39416   1.00
H2       0.31821    0.59745    0.35212   1.00
H2       0.34496    0.57665    0.39085   1.00
H2       0.35311    0.62994    0.53656   1.00
H2       0.39774    0.60737    0.52381   1.00
H2       0.38784    0.65503    0.50834   1.00
H2       0.37099    0.55069    0.49044   1.00
H2       0.32407    0.56487    0.50622   1.00
H2       0.33280    0.55382    0.45657   1.00
C4       0.24960    1.02084    0.24698   1.00
C4       0.25019    0.97912    0.24741   1.00
C3       0.26411    1.04364    0.21558   1.00
C3       0.26850    0.95616    0.21818   1.00
C3       0.23425    1.04123    0.27991   1.00
C3       0.23143    0.95886    0.27860   1.00
C2       0.24913    1.10512    0.24917   1.00
C2       0.25087    0.89488    0.25083   1.00
C3       0.26410    1.08462    0.21671   1.00
C3       0.26853    0.91519    0.21962   1.00
C3       0.23383    1.08258    0.28017   1.00
C3       0.23324    0.91762    0.28039   1.00
H1       0.27499    1.03115    0.19090   1.00
H1       0.28257    0.96852    0.19510   1.00
C5       0.21926    1.02020    0.31227   1.00
C5       0.21128    0.97980    0.30803   1.00
H1       0.27524    1.09955    0.19325   1.00
H1       0.28194    0.90010    0.19749   1.00
H1       0.22174    1.09680    0.30351   1.00
H1       0.22184    0.90368    0.30418   1.00
O3       0.21058    1.03961    0.34640   1.00
O3       0.18665    0.96099    0.33385   1.00
Si1      0.24322    1.04247    0.38100   1.00
Si1      0.14159    0.95279    0.32082   1.00
C6       0.21759    1.07538    0.41123   1.00
C6       0.24669    0.99598    0.40276   1.00
C6       0.28796    1.06253    0.36520   1.00
C6       0.12691    0.96693    0.27342   1.00
C6       0.13717    0.90198    0.32560   1.00
C6       0.11132    0.97477    0.35607   1.00
C6       0.19972    1.11194    0.39032   1.00
H2       0.19259    1.05791    0.42050   1.00
C6       0.23631    1.09147    0.44983   1.00
H2       0.21807    0.98358    0.39639   1.00
C6       0.27706    0.96634    0.38592   1.00
C6       0.25137    0.99336    0.44812   1.00
H2       0.27842    1.08831    0.34902   1.00
C6       0.31665    1.07772    0.39741   1.00
C6       0.31476    1.03849    0.33677   1.00
C6       0.13192    1.01071    0.26156   1.00
C6       0.14033    0.94225    0.23736   1.00
H2       0.09544    0.96212    0.27441   1.00
H2       0.15506    0.89051    0.30189   1.00
C6       0.15450    0.88378    0.36377   1.00
C6       0.09559    0.88393    0.32028   1.00
H2       0.11081    0.95375    0.38001   1.00
C6       0.12668    1.01336    0.37463   1.00
C6       0.06761    0.98244    0.34513   1.00
H2       0.18067    1.10346    0.36621   1.00
H2       0.22256    1.13090    0.37865   1.00
H2       0.18190    1.12917    0.41040   1.00
H2       0.21368    1.09608    0.47185   1.00
H2       0.25783    1.07178    0.46229   1.00
H2       0.25058    1.11964    0.44551   1.00
H2       0.27071    0.93672    0.39598   1.00
H2       0.27643    0.96532    0.35420   1.00
H2       0.30663    0.97352    0.39534   1.00
H2       0.22780    1.00862    0.46315   1.00
H2       0.25016    0.96308    0.45818   1.00
H2       0.27930    1.00550    0.45753   1.00
H2       0.32258    1.05514    0.41911   1.00
H2       0.34461    1.08708    0.38515   1.00
H2       0.30504    1.10332    0.41206   1.00
H2       0.33447    1.01902    0.35248   1.00
H2       0.29862    1.02068    0.31625   1.00
H2       0.33291    1.05828    0.31951   1.00
H2       0.16144    1.01688    0.25152   1.00
H2       0.11220    1.01809    0.23758   1.00
H2       0.12523    1.03048    0.28549   1.00
H2       0.12457    0.95125    0.21109   1.00
H2       0.17127    0.94574    0.23120   1.00
H2       0.13434    0.91122    0.24114   1.00
H2       0.15640    0.85202    0.36110   1.00
H2       0.18407    0.89435    0.36932   1.00
H2       0.13665    0.89035    0.38930   1.00
H2       0.08162    0.89416    0.29356   1.00
H2       0.09745    0.85212    0.31821   1.00
H2       0.07665    0.89085    0.34496   1.00
H2       0.12994    1.03656    0.35311   1.00
H2       0.10737    1.02381    0.39774   1.00
H2       0.15503    1.00834    0.38784   1.00
H2       0.05069    0.99044    0.37099   1.00
H2       0.06487    1.00622    0.32407   1.00
H2       0.05382    0.95657    0.33280   1.00
C4       -0.02084   0.74698    0.25040   1.00
C4       0.02088    0.74741    0.24981   1.00
C3       -0.04364   0.71558    0.23589   1.00
C3       0.04384    0.71818    0.23150   1.00
C3       -0.04123   0.77991    0.26575   1.00
C3       0.04114    0.77860    0.26857   1.00
C2       -0.10512   0.74917    0.25087   1.00
C2       0.10512    0.75083    0.24913   1.00
C3       -0.08462   0.71671    0.23590   1.00
C3       0.08481    0.71962    0.23147   1.00
C3       -0.08258   0.78017    0.26617   1.00
C3       0.08238    0.78039    0.26676   1.00
H1       -0.03115   0.69090    0.22501   1.00
H1       0.03148    0.69510    0.21743   1.00
C5       -0.02020   0.81227    0.28074   1.00
C5       0.02020    0.80803    0.28872   1.00
H1       -0.09955   0.69325    0.22476   1.00
H1       0.09990    0.69749    0.21806   1.00
H1       -0.09680   0.80351    0.27826   1.00
H1       0.09632    0.80418    0.27816   1.00
O3       -0.03961   0.84640    0.28942   1.00
O3       0.03901    0.83385    0.31335   1.00
Si1      -0.04247   0.88100    0.25678   1.00
Si1      0.04721    0.82082    0.35841   1.00
C6       -0.07538   0.91123    0.28241   1.00
C6       0.00402    0.90276    0.25331   1.00
C6       -0.06253   0.86520    0.21204   1.00
C6       0.03307    0.77342    0.37309   1.00
C6       0.09802    0.82560    0.36283   1.00
C6       0.02523    0.85607    0.38868   1.00
C6       -0.11194   0.89032    0.30028   1.00
H2       -0.05791   0.92050    0.30741   1.00
C6       -0.09147   0.94983    0.26369   1.00
H2       0.01642    0.89639    0.28193   1.00
C6       0.03366    0.88592    0.22294   1.00
C6       0.00664    0.94812    0.24863   1.00
H2       -0.08831   0.84902    0.22158   1.00
C6       -0.07772   0.89741    0.18335   1.00
C6       -0.03849   0.83677    0.18524   1.00
C6       -0.01071   0.76156    0.36808   1.00
C6       0.05775    0.73736    0.35967   1.00
H2       0.03788    0.77441    0.40456   1.00
H2       0.10949    0.80189    0.34494   1.00
C6       0.11622    0.86377    0.34550   1.00
C6       0.11607    0.82028    0.40441   1.00
H2       0.04625    0.88001    0.38919   1.00
C6       -0.01336   0.87463    0.37332   1.00
C6       0.01756    0.84513    0.43239   1.00
H2       -0.10346   0.86621    0.31933   1.00
H2       -0.13090   0.87865    0.27744   1.00
H2       -0.12917   0.91040    0.31810   1.00
H2       -0.09608   0.97185    0.28632   1.00
H2       -0.07178   0.96229    0.24217   1.00
H2       -0.11964   0.94551    0.24942   1.00
H2       0.06328    0.89598    0.22929   1.00
H2       0.03468    0.85420    0.22357   1.00
H2       0.02648    0.89534    0.19337   1.00
H2       -0.00862   0.96315    0.27220   1.00
H2       0.03692    0.95818    0.24984   1.00
H2       -0.00550   0.95753    0.22070   1.00
H2       -0.05514   0.91911    0.17742   1.00
H2       -0.08708   0.88515    0.15539   1.00
H2       -0.10332   0.91206    0.19496   1.00
H2       -0.01902   0.85248    0.16553   1.00
H2       -0.02068   0.81625    0.20138   1.00
H2       -0.05828   0.81951    0.16709   1.00
H2       -0.01688   0.75152    0.33856   1.00
H2       -0.01809   0.73758    0.38780   1.00
H2       -0.03048   0.78549    0.37477   1.00
H2       0.04875    0.71109    0.37543   1.00
H2       0.05426    0.73120    0.32873   1.00
H2       0.08878    0.74114    0.36566   1.00
H2       0.14798    0.86110    0.34360   1.00
H2       0.10565    0.86932    0.31593   1.00
H2       0.10965    0.88930    0.36335   1.00
H2       0.10584    0.79356    0.41838   1.00
H2       0.14788    0.81821    0.40255   1.00
H2       0.10915    0.84496    0.42335   1.00
H2       -0.03656   0.85311    0.37006   1.00
H2       -0.02381   0.89774    0.39263   1.00
H2       -0.00834   0.88784    0.34497   1.00
H2       0.00956    0.87099    0.44931   1.00
H2       -0.00622   0.82407    0.43513   1.00
H2       0.04343    0.83280    0.44618   1.00
C4       0.52084    0.74698    0.24960   1.00
C4       0.47912    0.74741    0.25019   1.00
C3       0.54364    0.71558    0.26411   1.00
C3       0.45616    0.71818    0.26850   1.00
C3       0.54123    0.77991    0.23425   1.00
C3       0.45886    0.77860    0.23143   1.00
C2       0.60512    0.74917    0.24913   1.00
C2       0.39488    0.75083    0.25087   1.00
C3       0.58462    0.71671    0.26410   1.00
C3       0.41519    0.71962    0.26853   1.00
C3       0.58258    0.78017    0.23383   1.00
C3       0.41762    0.78039    0.23324   1.00
H1       0.53115    0.69090    0.27499   1.00
H1       0.46852    0.69510    0.28257   1.00
C5       0.52020    0.81227    0.21926   1.00
C5       0.47980    0.80803    0.21128   1.00
H1       0.59955    0.69325    0.27524   1.00
H1       0.40010    0.69749    0.28194   1.00
H1       0.59680    0.80351    0.22174   1.00
H1       0.40368    0.80418    0.22184   1.00
O3       0.53961    0.84640    0.21058   1.00
O3       0.46099    0.83385    0.18665   1.00
Si1      0.54247    0.88100    0.24322   1.00
Si1      0.45279    0.82082    0.14159   1.00
C6       0.57538    0.91123    0.21759   1.00
C6       0.49598    0.90276    0.24669   1.00
C6       0.56253    0.86520    0.28796   1.00
C6       0.46693    0.77342    0.12691   1.00
C6       0.40198    0.82560    0.13717   1.00
C6       0.47477    0.85607    0.11132   1.00
C6       0.61194    0.89032    0.19972   1.00
H2       0.55791    0.92050    0.19259   1.00
C6       0.59147    0.94983    0.23631   1.00
H2       0.48358    0.89639    0.21807   1.00
C6       0.46634    0.88592    0.27706   1.00
C6       0.49336    0.94812    0.25137   1.00
H2       0.58831    0.84902    0.27842   1.00
C6       0.57772    0.89741    0.31665   1.00
C6       0.53849    0.83677    0.31476   1.00
C6       0.51071    0.76156    0.13192   1.00
C6       0.44225    0.73736    0.14033   1.00
H2       0.46212    0.77441    0.09544   1.00
H2       0.39051    0.80189    0.15506   1.00
C6       0.38378    0.86377    0.15450   1.00
C6       0.38393    0.82028    0.09559   1.00
H2       0.45375    0.88001    0.11081   1.00
C6       0.51336    0.87463    0.12668   1.00
C6       0.48244    0.84513    0.06761   1.00
H2       0.60346    0.86621    0.18067   1.00
H2       0.63090    0.87865    0.22256   1.00
H2       0.62917    0.91040    0.18190   1.00
H2       0.59608    0.97185    0.21368   1.00
H2       0.57178    0.96229    0.25783   1.00
H2       0.61964    0.94551    0.25058   1.00
H2       0.43672    0.89598    0.27071   1.00
H2       0.46532    0.85420    0.27643   1.00
H2       0.47352    0.89534    0.30663   1.00
H2       0.50862    0.96315    0.22780   1.00
H2       0.46308    0.95818    0.25016   1.00
H2       0.50550    0.95753    0.27930   1.00
H2       0.55514    0.91911    0.32258   1.00
H2       0.58708    0.88515    0.34461   1.00
H2       0.60332    0.91206    0.30504   1.00
H2       0.51902    0.85248    0.33447   1.00
H2       0.52068    0.81625    0.29862   1.00
H2       0.55828    0.81951    0.33291   1.00
H2       0.51688    0.75152    0.16144   1.00
H2       0.51809    0.73758    0.11220   1.00
H2       0.53048    0.78549    0.12523   1.00
H2       0.45125    0.71109    0.12457   1.00
H2       0.44574    0.73120    0.17127   1.00
H2       0.41122    0.74114    0.13434   1.00
H2       0.35202    0.86110    0.15640   1.00
H2       0.39435    0.86932    0.18407   1.00
H2       0.39035    0.88930    0.13665   1.00
H2       0.39416    0.79356    0.08162   1.00
H2       0.35212    0.81821    0.09745   1.00
H2       0.39085    0.84496    0.07665   1.00
H2       0.53656    0.85311    0.12994   1.00
H2       0.52381    0.89774    0.10737   1.00
H2       0.50834    0.88784    0.15503   1.00
H2       0.49044    0.87099    0.05069   1.00
H2       0.50622    0.82407    0.06487   1.00
H2       0.45657    0.83280    0.05382   1.00
C4       0.25040    0.47916    0.24698   1.00
C4       0.24981    0.52088    0.24741   1.00
C3       0.23589    0.45636    0.21558   1.00
C3       0.23150    0.54384    0.21818   1.00
C3       0.26575    0.45877    0.27991   1.00
C3       0.26857    0.54114    0.27860   1.00
C2       0.25087    0.39488    0.24917   1.00
C2       0.24913    0.60512    0.25083   1.00
C3       0.23590    0.41538    0.21671   1.00
C3       0.23147    0.58481    0.21962   1.00
C3       0.26617    0.41742    0.28017   1.00
C3       0.26676    0.58238    0.28039   1.00
H1       0.22501    0.46885    0.19090   1.00
H1       0.21743    0.53148    0.19510   1.00
C5       0.28074    0.47980    0.31227   1.00
C5       0.28872    0.52020    0.30803   1.00
H1       0.22476    0.40045    0.19325   1.00
H1       0.21806    0.59990    0.19749   1.00
H1       0.27826    0.40320    0.30351   1.00
H1       0.27816    0.59632    0.30418   1.00
O3       0.28942    0.46039    0.34640   1.00
O3       0.31335    0.53901    0.33385   1.00
Si1      0.25678    0.45753    0.38100   1.00
Si1      0.35841    0.54721    0.32082   1.00
C6       0.28241    0.42462    0.41123   1.00
C6       0.25331    0.50402    0.40276   1.00
C6       0.21204    0.43747    0.36520   1.00
C6       0.37309    0.53307    0.27342   1.00
C6       0.36283    0.59802    0.32560   1.00
C6       0.38868    0.52523    0.35607   1.00
C6       0.30028    0.38806    0.39032   1.00
H2       0.30741    0.44209    0.42050   1.00
C6       0.26369    0.40853    0.44983   1.00
H2       0.28193    0.51642    0.39639   1.00
C6       0.22294    0.53366    0.38592   1.00
C6       0.24863    0.50664    0.44812   1.00
H2       0.22158    0.41169    0.34902   1.00
C6       0.18335    0.42228    0.39741   1.00
C6       0.18524    0.46151    0.33677   1.00
C6       0.36808    0.48929    0.26156   1.00
C6       0.35967    0.55775    0.23736   1.00
H2       0.40456    0.53788    0.27441   1.00
H2       0.34494    0.60949    0.30189   1.00
C6       0.34550    0.61622    0.36377   1.00
C6       0.40441    0.61607    0.32028   1.00
H2       0.38919    0.54625    0.38001   1.00
C6       0.37332    0.48664    0.37463   1.00
C6       0.43239    0.51756    0.34513   1.00
H2       0.31933    0.39654    0.36621   1.00
H2       0.27744    0.36910    0.37865   1.00
H2       0.31810    0.37083    0.41040   1.00
H2       0.28632    0.40392    0.47185   1.00
H2       0.24217    0.42822    0.46229   1.00
H2       0.24942    0.38036    0.44551   1.00
H2       0.22929    0.56328    0.39598   1.00
H2       0.22357    0.53468    0.35420   1.00
H2       0.19337    0.52648    0.39534   1.00
H2       0.27220    0.49138    0.46315   1.00
H2       0.24984    0.53692    0.45818   1.00
H2       0.22070    0.49450    0.45753   1.00
H2       0.17742    0.44486    0.41911   1.00
H2       0.15539    0.41292    0.38515   1.00
H2       0.19496    0.39668    0.41206   1.00
H2       0.16553    0.48098    0.35248   1.00
H2       0.20138    0.47932    0.31625   1.00
H2       0.16709    0.44172    0.31951   1.00
H2       0.33856    0.48312    0.25152   1.00
H2       0.38780    0.48191    0.23758   1.00
H2       0.37477    0.46952    0.28549   1.00
H2       0.37543    0.54875    0.21109   1.00
H2       0.32873    0.55426    0.23120   1.00
H2       0.36566    0.58878    0.24114   1.00
H2       0.34360    0.64798    0.36110   1.00
H2       0.31593    0.60565    0.36932   1.00
H2       0.36335    0.60965    0.38930   1.00
H2       0.41838    0.60584    0.29356   1.00
H2       0.40255    0.64788    0.31821   1.00
H2       0.42335    0.60915    0.34496   1.00
H2       0.37006    0.46344    0.35311   1.00
H2       0.39263    0.47619    0.39774   1.00
H2       0.34497    0.49166    0.38784   1.00
H2       0.44931    0.50956    0.37099   1.00
H2       0.43513    0.49378    0.32407   1.00
H2       0.44618    0.54343    0.33280   1.00
C4       0.24698    0.75040    -0.02084   1.00
C4       0.24741    0.74981    0.02088   1.00
C3       0.21558    0.73589    -0.04364   1.00
C3       0.21818    0.73150    0.04384   1.00
C3       0.27991    0.76575    -0.04123   1.00
C3       0.27860    0.76857    0.04114   1.00
C2       0.24917    0.75087    -0.10512   1.00
C2       0.25083    0.74913    0.10512   1.00
C3       0.21671    0.73590    -0.08462   1.00
C3       0.21962    0.73147    0.08481   1.00
C3       0.28017    0.76617    -0.08258   1.00
C3       0.28039    0.76676    0.08238   1.00
H1       0.19090    0.72501    -0.03115   1.00
H1       0.19510    0.71743    0.03148   1.00
C5       0.31227    0.78074    -0.02020   1.00
C5       0.30803    0.78872    0.02020   1.00
H1       0.19325    0.72476    -0.09955   1.00
H1       0.19749    0.71806    0.09990   1.00
H1       0.30351    0.77826    -0.09680   1.00
H1       0.30418    0.77816    0.09632   1.00
O3       0.34640    0.78942    -0.03961   1.00
O3       0.33385    0.81335    0.03901   1.00
Si1      0.38100    0.75678    -0.04247   1.00
Si1      0.32082    0.85841    0.04721   1.00
C6       0.41123    0.78241    -0.07538   1.00
C6       0.40276    0.75331    0.00402   1.00
C6       0.36520    0.71204    -0.06253   1.00
C6       0.27342    0.87309    0.03307   1.00
C6       0.32560    0.86283    0.09802   1.00
C6       0.35607    0.88868    0.02523   1.00
C6       0.39032    0.80028    -0.11194   1.00
H2       0.42050    0.80741    -0.05791   1.00
C6       0.44983    0.76369    -0.09147   1.00
H2       0.39639    0.78193    0.01642   1.00
C6       0.38592    0.72294    0.03366   1.00
C6       0.44812    0.74863    0.00664   1.00
H2       0.34902    0.72158    -0.08831   1.00
C6       0.39741    0.68335    -0.07772   1.00
C6       0.33677    0.68524    -0.03849   1.00
C6       0.26156    0.86808    -0.01071   1.00
C6       0.23736    0.85967    0.05775   1.00
H2       0.27441    0.90456    0.03788   1.00
H2       0.30189    0.84494    0.10949   1.00
C6       0.36377    0.84550    0.11622   1.00
C6       0.32028    0.90441    0.11607   1.00
H2       0.38001    0.88919    0.04625   1.00
C6       0.37463    0.87332    -0.01336   1.00
C6       0.34513    0.93239    0.01756   1.00
H2       0.36621    0.81933    -0.10346   1.00
H2       0.37865    0.77744    -0.13090   1.00
H2       0.41040    0.81810    -0.12917   1.00
H2       0.47185    0.78632    -0.09608   1.00
H2       0.46229    0.74217    -0.07178   1.00
H2       0.44551    0.74942    -0.11964   1.00
H2       0.39598    0.72929    0.06328   1.00
H2       0.35420    0.72357    0.03468   1.00
H2       0.39534    0.69337    0.02648   1.00
H2       0.46315    0.77220    -0.00862   1.00
H2       0.45818    0.74984    0.03692   1.00
H2       0.45753    0.72070    -0.00550   1.00
H2       0.41911    0.67742    -0.05514   1.00
H2       0.38515    0.65539    -0.08708   1.00
H2       0.41206    0.69496    -0.10332   1.00
H2       0.35248    0.66553    -0.01902   1.00
H2       0.31625    0.70138    -0.02068   1.00
H2       0.31951    0.66709    -0.05828   1.00
H2       0.25152    0.83856    -0.01688   1.00
H2       0.23758    0.88780    -0.01809   1.00
H2       0.28549    0.87477    -0.03048   1.00
H2       0.21109    0.87543    0.04875   1.00
H2       0.23120    0.82873    0.05426   1.00
H2       0.24114    0.86566    0.08878   1.00
H2       0.36110    0.84360    0.14798   1.00
H2       0.36932    0.81593    0.10565   1.00
H2       0.38930    0.86335    0.10965   1.00
H2       0.29356    0.91838    0.10584   1.00
H2       0.31821    0.90255    0.14788   1.00
H2       0.34496    0.92335    0.10915   1.00
H2       0.35311    0.87006    -0.03656   1.00
H2       0.39774    0.89263    -0.02381   1.00
H2       0.38784    0.84497    -0.00834   1.00
H2       0.37099    0.94931    0.00956   1.00
H2       0.32407    0.93513    -0.00622   1.00
H2       0.33280    0.94618    0.04343   1.00
C4       0.74698    0.24960    0.52084   1.00
C4       0.74741    0.25019    0.47912   1.00
C3       0.71558    0.26411    0.54364   1.00
C3       0.71818    0.26850    0.45616   1.00
C3       0.77991    0.23425    0.54123   1.00
C3       0.77860    0.23143    0.45886   1.00
C2       0.74917    0.24913    0.60512   1.00
C2       0.75083    0.25087    0.39488   1.00
C3       0.71671    0.26410    0.58462   1.00
C3       0.71962    0.26853    0.41519   1.00
C3       0.78017    0.23383    0.58258   1.00
C3       0.78039    0.23324    0.41762   1.00
H1       0.69090    0.27499    0.53115   1.00
H1       0.69510    0.28257    0.46852   1.00
C5       0.81227    0.21926    0.52020   1.00
C5       0.80803    0.21128    0.47980   1.00
H1       0.69325    0.27524    0.59955   1.00
H1       0.69749    0.28194    0.40010   1.00
H1       0.80351    0.22174    0.59680   1.00
H1       0.80418    0.22184    0.40368   1.00
O3       0.84640    0.21058    0.53961   1.00
O3       0.83385    0.18665    0.46099   1.00
Si1      0.88100    0.24322    0.54247   1.00
Si1      0.82082    0.14159    0.45279   1.00
C6       0.91123    0.21759    0.57538   1.00
C6       0.90276    0.24669    0.49598   1.00
C6       0.86520    0.28796    0.56253   1.00
C6       0.77342    0.12691    0.46693   1.00
C6       0.82560    0.13717    0.40198   1.00
C6       0.85607    0.11132    0.47477   1.00
C6       0.89032    0.19972    0.61194   1.00
H2       0.92050    0.19259    0.55791   1.00
C6       0.94983    0.23631    0.59147   1.00
H2       0.89639    0.21807    0.48358   1.00
C6       0.88592    0.27706    0.46634   1.00
C6       0.94812    0.25137    0.49336   1.00
H2       0.84902    0.27842    0.58831   1.00
C6       0.89741    0.31665    0.57772   1.00
C6       0.83677    0.31476    0.53849   1.00
C6       0.76156    0.13192    0.51071   1.00
C6       0.73736    0.14033    0.44225   1.00
H2       0.77441    0.09544    0.46212   1.00
H2       0.80189    0.15506    0.39051   1.00
C6       0.86377    0.15450    0.38378   1.00
C6       0.82028    0.09559    0.38393   1.00
H2       0.88001    0.11081    0.45375   1.00
C6       0.87463    0.12668    0.51336   1.00
C6       0.84513    0.06761    0.48244   1.00
H2       0.86621    0.18067    0.60346   1.00
H2       0.87865    0.22256    0.63090   1.00
H2       0.91040    0.18190    0.62917   1.00
H2       0.97185    0.21368    0.59608   1.00
H2       0.96229    0.25783    0.57178   1.00
H2       0.94551    0.25058    0.61964   1.00
H2       0.89598    0.27071    0.43672   1.00
H2       0.85420    0.27643    0.46532   1.00
H2       0.89534    0.30663    0.47352   1.00
H2       0.96315    0.22780    0.50862   1.00
H2       0.95818    0.25016    0.46308   1.00
H2       0.95753    0.27930    0.50550   1.00
H2       0.91911    0.32258    0.55514   1.00
H2       0.88515    0.34461    0.58708   1.00
H2       0.91206    0.30504    0.60332   1.00
H2       0.85248    0.33447    0.51902   1.00
H2       0.81625    0.29862    0.52068   1.00
H2       0.81951    0.33291    0.55828   1.00
H2       0.75152    0.16144    0.51688   1.00
H2       0.73758    0.11220    0.51809   1.00
H2       0.78549    0.12523    0.53048   1.00
H2       0.71109    0.12457    0.45125   1.00
H2       0.73120    0.17127    0.44574   1.00
H2       0.74114    0.13434    0.41122   1.00
H2       0.86110    0.15640    0.35202   1.00
H2       0.86932    0.18407    0.39435   1.00
H2       0.88930    0.13665    0.39035   1.00
H2       0.79356    0.08162    0.39416   1.00
H2       0.81821    0.09745    0.35212   1.00
H2       0.84496    0.07665    0.39085   1.00
H2       0.85311    0.12994    0.53656   1.00
H2       0.89774    0.10737    0.52381   1.00
H2       0.88784    0.15503    0.50834   1.00
H2       0.87099    0.05069    0.49044   1.00
H2       0.82407    0.06487    0.50622   1.00
H2       0.83280    0.05382    0.45657   1.00
C4       0.74960    0.52084    0.24698   1.00
C4       0.75019    0.47912    0.24741   1.00
C3       0.76411    0.54364    0.21558   1.00
C3       0.76850    0.45616    0.21818   1.00
C3       0.73425    0.54123    0.27991   1.00
C3       0.73143    0.45886    0.27860   1.00
C2       0.74913    0.60512    0.24917   1.00
C2       0.75087    0.39488    0.25083   1.00
C3       0.76410    0.58462    0.21671   1.00
C3       0.76853    0.41519    0.21962   1.00
C3       0.73383    0.58258    0.28017   1.00
C3       0.73324    0.41762    0.28039   1.00
H1       0.77499    0.53115    0.19090   1.00
H1       0.78257    0.46852    0.19510   1.00
C5       0.71926    0.52020    0.31227   1.00
C5       0.71128    0.47980    0.30803   1.00
H1       0.77524    0.59955    0.19325   1.00
H1       0.78194    0.40010    0.19749   1.00
H1       0.72174    0.59680    0.30351   1.00
H1       0.72184    0.40368    0.30418   1.00
O3       0.71058    0.53961    0.34640   1.00
O3       0.68665    0.46099    0.33385   1.00
Si1      0.74322    0.54247    0.38100   1.00
Si1      0.64159    0.45279    0.32082   1.00
C6       0.71759    0.57538    0.41123   1.00
C6       0.74669    0.49598    0.40276   1.00
C6       0.78796    0.56253    0.36520   1.00
C6       0.62691    0.46693    0.27342   1.00
C6       0.63717    0.40198    0.32560   1.00
C6       0.61132    0.47477    0.35607   1.00
C6       0.69972    0.61194    0.39032   1.00
H2       0.69259    0.55791    0.42050   1.00
C6       0.73631    0.59147    0.44983   1.00
H2       0.71807    0.48358    0.39639   1.00
C6       0.77706    0.46634    0.38592   1.00
C6       0.75137    0.49336    0.44812   1.00
H2       0.77842    0.58831    0.34902   1.00
C6       0.81665    0.57772    0.39741   1.00
C6       0.81476    0.53849    0.33677   1.00
C6       0.63192    0.51071    0.26156   1.00
C6       0.64033    0.44225    0.23736   1.00
H2       0.59544    0.46212    0.27441   1.00
H2       0.65506    0.39051    0.30189   1.00
C6       0.65450    0.38378    0.36377   1.00
C6       0.59559    0.38393    0.32028   1.00
H2       0.61081    0.45375    0.38001   1.00
C6       0.62668    0.51336    0.37463   1.00
C6       0.56761    0.48244    0.34513   1.00
H2       0.68067    0.60346    0.36621   1.00
H2       0.72256    0.63090    0.37865   1.00
H2       0.68190    0.62917    0.41040   1.00
H2       0.71368    0.59608    0.47185   1.00
H2       0.75783    0.57178    0.46229   1.00
H2       0.75058    0.61964    0.44551   1.00
H2       0.77071    0.43672    0.39598   1.00
H2       0.77643    0.46532    0.35420   1.00
H2       0.80663    0.47352    0.39534   1.00
H2       0.72780    0.50862    0.46315   1.00
H2       0.75016    0.46308    0.45818   1.00
H2       0.77930    0.50550    0.45753   1.00
H2       0.82258    0.55514    0.41911   1.00
H2       0.84461    0.58708    0.38515   1.00
H2       0.80504    0.60332    0.41206   1.00
H2       0.83447    0.51902    0.35248   1.00
H2       0.79862    0.52068    0.31625   1.00
H2       0.83291    0.55828    0.31951   1.00
H2       0.66144    0.51688    0.25152   1.00
H2       0.61220    0.51809    0.23758   1.00
H2       0.62523    0.53048    0.28549   1.00
H2       0.62457    0.45125    0.21109   1.00
H2       0.67127    0.44574    0.23120   1.00
H2       0.63434    0.41122    0.24114   1.00
H2       0.65640    0.35202    0.36110   1.00
H2       0.68407    0.39435    0.36932   1.00
H2       0.63665    0.39035    0.38930   1.00
H2       0.58162    0.39416    0.29356   1.00
H2       0.59745    0.35212    0.31821   1.00
H2       0.57665    0.39085    0.34496   1.00
H2       0.62994    0.53656    0.35311   1.00
H2       0.60737    0.52381    0.39774   1.00
H2       0.65503    0.50834    0.38784   1.00
H2       0.55069    0.49044    0.37099   1.00
H2       0.56487    0.50622    0.32407   1.00
H2       0.55382    0.45657    0.33280   1.00
C4       0.47916    0.24698    0.25040   1.00
C4       0.52088    0.24741    0.24981   1.00
C3       0.45636    0.21558    0.23589   1.00
C3       0.54384    0.21818    0.23150   1.00
C3       0.45877    0.27991    0.26575   1.00
C3       0.54114    0.27860    0.26857   1.00
C2       0.39488    0.24917    0.25087   1.00
C2       0.60512    0.25083    0.24913   1.00
C3       0.41538    0.21671    0.23590   1.00
C3       0.58481    0.21962    0.23147   1.00
C3       0.41742    0.28017    0.26617   1.00
C3       0.58238    0.28039    0.26676   1.00
H1       0.46885    0.19090    0.22501   1.00
H1       0.53148    0.19510    0.21743   1.00
C5       0.47980    0.31227    0.28074   1.00
C5       0.52020    0.30803    0.28872   1.00
H1       0.40045    0.19325    0.22476   1.00
H1       0.59990    0.19749    0.21806   1.00
H1       0.40320    0.30351    0.27826   1.00
H1       0.59632    0.30418    0.27816   1.00
O3       0.46039    0.34640    0.28942   1.00
O3       0.53901    0.33385    0.31335   1.00
Si1      0.45753    0.38100    0.25678   1.00
Si1      0.54721    0.32082    0.35841   1.00
C6       0.42462    0.41123    0.28241   1.00
C6       0.50402    0.40276    0.25331   1.00
C6       0.43747    0.36520    0.21204   1.00
C6       0.53307    0.27342    0.37309   1.00
C6       0.59802    0.32560    0.36283   1.00
C6       0.52523    0.35607    0.38868   1.00
C6       0.38806    0.39032    0.30028   1.00
H2       0.44209    0.42050    0.30741   1.00
C6       0.40853    0.44983    0.26369   1.00
H2       0.51642    0.39639    0.28193   1.00
C6       0.53366    0.38592    0.22294   1.00
C6       0.50664    0.44812    0.24863   1.00
H2       0.41169    0.34902    0.22158   1.00
C6       0.42228    0.39741    0.18335   1.00
C6       0.46151    0.33677    0.18524   1.00
C6       0.48929    0.26156    0.36808   1.00
C6       0.55775    0.23736    0.35967   1.00
H2       0.53788    0.27441    0.40456   1.00
H2       0.60949    0.30189    0.34494   1.00
C6       0.61622    0.36377    0.34550   1.00
C6       0.61607    0.32028    0.40441   1.00
H2       0.54625    0.38001    0.38919   1.00
C6       0.48664    0.37463    0.37332   1.00
C6       0.51756    0.34513    0.43239   1.00
H2       0.39654    0.36621    0.31933   1.00
H2       0.36910    0.37865    0.27744   1.00
H2       0.37083    0.41040    0.31810   1.00
H2       0.40392    0.47185    0.28632   1.00
H2       0.42822    0.46229    0.24217   1.00
H2       0.38036    0.44551    0.24942   1.00
H2       0.56328    0.39598    0.22929   1.00
H2       0.53468    0.35420    0.22357   1.00
H2       0.52648    0.39534    0.19337   1.00
H2       0.49138    0.46315    0.27220   1.00
H2       0.53692    0.45818    0.24984   1.00
H2       0.49450    0.45753    0.22070   1.00
H2       0.44486    0.41911    0.17742   1.00
H2       0.41292    0.38515    0.15539   1.00
H2       0.39668    0.41206    0.19496   1.00
H2       0.48098    0.35248    0.16553   1.00
H2       0.47932    0.31625    0.20138   1.00
H2       0.44172    0.31951    0.16709   1.00
H2       0.48312    0.25152    0.33856   1.00
H2       0.48191    0.23758    0.38780   1.00
H2       0.46952    0.28549    0.37477   1.00
H2       0.54875    0.21109    0.37543   1.00
H2       0.55426    0.23120    0.32873   1.00
H2       0.58878    0.24114    0.36566   1.00
H2       0.64798    0.36110    0.34360   1.00
H2       0.60565    0.36932    0.31593   1.00
H2       0.60965    0.38930    0.36335   1.00
H2       0.60584    0.29356    0.41838   1.00
H2       0.64788    0.31821    0.40255   1.00
H2       0.60915    0.34496    0.42335   1.00
H2       0.46344    0.35311    0.37006   1.00
H2       0.47619    0.39774    0.39263   1.00
H2       0.49166    0.38784    0.34497   1.00
H2       0.50956    0.37099    0.44931   1.00
H2       0.49378    0.32407    0.43513   1.00
H2       0.54343    0.33280    0.44618   1.00
C4       1.02084    0.24698    0.24960   1.00
C4       0.97912    0.24741    0.25019   1.00
C3       1.04364    0.21558    0.26411   1.00
C3       0.95616    0.21818    0.26850   1.00
C3       1.04123    0.27991    0.23425   1.00
C3       0.95886    0.27860    0.23143   1.00
C2       1.10512    0.24917    0.24913   1.00
C2       0.89488    0.25083    0.25087   1.00
C3       1.08462    0.21671    0.26410   1.00
C3       0.91519    0.21962    0.26853   1.00
C3       1.08258    0.28017    0.23383   1.00
C3       0.91762    0.28039    0.23324   1.00
H1       1.03115    0.19090    0.27499   1.00
H1       0.96852    0.19510    0.28257   1.00
C5       1.02020    0.31227    0.21926   1.00
C5       0.97980    0.30803    0.21128   1.00
H1       1.09955    0.19325    0.27524   1.00
H1       0.90010    0.19749    0.28194   1.00
H1       1.09680    0.30351    0.22174   1.00
H1       0.90368    0.30418    0.22184   1.00
O3       1.03961    0.34640    0.21058   1.00
O3       0.96099    0.33385    0.18665   1.00
Si1      1.04247    0.38100    0.24322   1.00
Si1      0.95279    0.32082    0.14159   1.00
C6       1.07538    0.41123    0.21759   1.00
C6       0.99598    0.40276    0.24669   1.00
C6       1.06253    0.36520    0.28796   1.00
C6       0.96693    0.27342    0.12691   1.00
C6       0.90198    0.32560    0.13717   1.00
C6       0.97477    0.35607    0.11132   1.00
C6       1.11194    0.39032    0.19972   1.00
H2       1.05791    0.42050    0.19259   1.00
C6       1.09147    0.44983    0.23631   1.00
H2       0.98358    0.39639    0.21807   1.00
C6       0.96634    0.38592    0.27706   1.00
C6       0.99336    0.44812    0.25137   1.00
H2       1.08831    0.34902    0.27842   1.00
C6       1.07772    0.39741    0.31665   1.00
C6       1.03849    0.33677    0.31476   1.00
C6       1.01071    0.26156    0.13192   1.00
C6       0.94225    0.23736    0.14033   1.00
H2       0.96212    0.27441    0.09544   1.00
H2       0.89051    0.30189    0.15506   1.00
C6       0.88378    0.36377    0.15450   1.00
C6       0.88393    0.32028    0.09559   1.00
H2       0.95375    0.38001    0.11081   1.00
C6       1.01336    0.37463    0.12668   1.00
C6       0.98244    0.34513    0.06761   1.00
H2       1.10346    0.36621    0.18067   1.00
H2       1.13090    0.37865    0.22256   1.00
H2       1.12917    0.41040    0.18190   1.00
H2       1.09608    0.47185    0.21368   1.00
H2       1.07178    0.46229    0.25783   1.00
H2       1.11964    0.44551    0.25058   1.00
H2       0.93672    0.39598    0.27071   1.00
H2       0.96532    0.35420    0.27643   1.00
H2       0.97352    0.39534    0.30663   1.00
H2       1.00862    0.46315    0.22780   1.00
H2       0.96308    0.45818    0.25016   1.00
H2       1.00550    0.45753    0.27930   1.00
H2       1.05514    0.41911    0.32258   1.00
H2       1.08708    0.38515    0.34461   1.00
H2       1.10332    0.41206    0.30504   1.00
H2       1.01902    0.35248    0.33447   1.00
H2       1.02068    0.31625    0.29862   1.00
H2       1.05828    0.31951    0.33291   1.00
H2       1.01688    0.25152    0.16144   1.00
H2       1.01809    0.23758    0.11220   1.00
H2       1.03048    0.28549    0.12523   1.00
H2       0.95125    0.21109    0.12457   1.00
H2       0.94574    0.23120    0.17127   1.00
H2       0.91122    0.24114    0.13434   1.00
H2       0.85202    0.36110    0.15640   1.00
H2       0.89435    0.36932    0.18407   1.00
H2       0.89035    0.38930    0.13665   1.00
H2       0.89416    0.29356    0.08162   1.00
H2       0.85212    0.31821    0.09745   1.00
H2       0.89085    0.34496    0.07665   1.00
H2       1.03656    0.35311    0.12994   1.00
H2       1.02381    0.39774    0.10737   1.00
H2       1.00834    0.38784    0.15503   1.00
H2       0.99044    0.37099    0.05069   1.00
H2       1.00622    0.32407    0.06487   1.00
H2       0.95657    0.33280    0.05382   1.00
C4       0.75040    -0.02084   0.24698   1.00
C4       0.74981    0.02088    0.24741   1.00
C3       0.73589    -0.04364   0.21558   1.00
C3       0.73150    0.04384    0.21818   1.00
C3       0.76575    -0.04123   0.27991   1.00
C3       0.76857    0.04114    0.27860   1.00
C2       0.75087    -0.10512   0.24917   1.00
C2       0.74913    0.10512    0.25083   1.00
C3       0.73590    -0.08462   0.21671   1.00
C3       0.73147    0.08481    0.21962   1.00
C3       0.76617    -0.08258   0.28017   1.00
C3       0.76676    0.08238    0.28039   1.00
H1       0.72501    -0.03115   0.19090   1.00
H1       0.71743    0.03148    0.19510   1.00
C5       0.78074    -0.02020   0.31227   1.00
C5       0.78872    0.02020    0.30803   1.00
H1       0.72476    -0.09955   0.19325   1.00
H1       0.71806    0.09990    0.19749   1.00
H1       0.77826    -0.09680   0.30351   1.00
H1       0.77816    0.09632    0.30418   1.00
O3       0.78942    -0.03961   0.34640   1.00
O3       0.81335    0.03901    0.33385   1.00
Si1      0.75678    -0.04247   0.38100   1.00
Si1      0.85841    0.04721    0.32082   1.00
C6       0.78241    -0.07538   0.41123   1.00
C6       0.75331    0.00402    0.40276   1.00
C6       0.71204    -0.06253   0.36520   1.00
C6       0.87309    0.03307    0.27342   1.00
C6       0.86283    0.09802    0.32560   1.00
C6       0.88868    0.02523    0.35607   1.00
C6       0.80028    -0.11194   0.39032   1.00
H2       0.80741    -0.05791   0.42050   1.00
C6       0.76369    -0.09147   0.44983   1.00
H2       0.78193    0.01642    0.39639   1.00
C6       0.72294    0.03366    0.38592   1.00
C6       0.74863    0.00664    0.44812   1.00
H2       0.72158    -0.08831   0.34902   1.00
C6       0.68335    -0.07772   0.39741   1.00
C6       0.68524    -0.03849   0.33677   1.00
C6       0.86808    -0.01071   0.26156   1.00
C6       0.85967    0.05775    0.23736   1.00
H2       0.90456    0.03788    0.27441   1.00
H2       0.84494    0.10949    0.30189   1.00
C6       0.84550    0.11622    0.36377   1.00
C6       0.90441    0.11607    0.32028   1.00
H2       0.88919    0.04625    0.38001   1.00
C6       0.87332    -0.01336   0.37463   1.00
C6       0.93239    0.01756    0.34513   1.00
H2       0.81933    -0.10346   0.36621   1.00
H2       0.77744    -0.13090   0.37865   1.00
H2       0.81810    -0.12917   0.41040   1.00
H2       0.78632    -0.09608   0.47185   1.00
H2       0.74217    -0.07178   0.46229   1.00
H2       0.74942    -0.11964   0.44551   1.00
H2       0.72929    0.06328    0.39598   1.00
H2       0.72357    0.03468    0.35420   1.00
H2       0.69337    0.02648    0.39534   1.00
H2       0.77220    -0.00862   0.46315   1.00
H2       0.74984    0.03692    0.45818   1.00
H2       0.72070    -0.00550   0.45753   1.00
H2       0.67742    -0.05514   0.41911   1.00
H2       0.65539    -0.08708   0.38515   1.00
H2       0.69496    -0.10332   0.41206   1.00
H2       0.66553    -0.01902   0.35248   1.00
H2       0.70138    -0.02068   0.31625   1.00
H2       0.66709    -0.05828   0.31951   1.00
H2       0.83856    -0.01688   0.25152   1.00
H2       0.88780    -0.01809   0.23758   1.00
H2       0.87477    -0.03048   0.28549   1.00
H2       0.87543    0.04875    0.21109   1.00
H2       0.82873    0.05426    0.23120   1.00
H2       0.86566    0.08878    0.24114   1.00
H2       0.84360    0.14798    0.36110   1.00
H2       0.81593    0.10565    0.36932   1.00
H2       0.86335    0.10965    0.38930   1.00
H2       0.91838    0.10584    0.29356   1.00
H2       0.90255    0.14788    0.31821   1.00
H2       0.92335    0.10915    0.34496   1.00
H2       0.87006    -0.03656   0.35311   1.00
H2       0.89263    -0.02381   0.39774   1.00
H2       0.84497    -0.00834   0.38784   1.00
H2       0.94931    0.00956    0.37099   1.00
H2       0.93513    -0.00622   0.32407   1.00
H2       0.94618    0.04343    0.33280   1.00
C4       0.74698    0.25040    -0.02084   1.00
C4       0.74741    0.24981    0.02088   1.00
C3       0.71558    0.23589    -0.04364   1.00
C3       0.71818    0.23150    0.04384   1.00
C3       0.77991    0.26575    -0.04123   1.00
C3       0.77860    0.26857    0.04114   1.00
C2       0.74917    0.25087    -0.10512   1.00
C2       0.75083    0.24913    0.10512   1.00
C3       0.71671    0.23590    -0.08462   1.00
C3       0.71962    0.23147    0.08481   1.00
C3       0.78017    0.26617    -0.08258   1.00
C3       0.78039    0.26676    0.08238   1.00
H1       0.69090    0.22501    -0.03115   1.00
H1       0.69510    0.21743    0.03148   1.00
C5       0.81227    0.28074    -0.02020   1.00
C5       0.80803    0.28872    0.02020   1.00
H1       0.69325    0.22476    -0.09955   1.00
H1       0.69749    0.21806    0.09990   1.00
H1       0.80351    0.27826    -0.09680   1.00
H1       0.80418    0.27816    0.09632   1.00
O3       0.84640    0.28942    -0.03961   1.00
O3       0.83385    0.31335    0.03901   1.00
Si1      0.88100    0.25678    -0.04247   1.00
Si1      0.82082    0.35841    0.04721   1.00
C6       0.91123    0.28241    -0.07538   1.00
C6       0.90276    0.25331    0.00402   1.00
C6       0.86520    0.21204    -0.06253   1.00
C6       0.77342    0.37309    0.03307   1.00
C6       0.82560    0.36283    0.09802   1.00
C6       0.85607    0.38868    0.02523   1.00
C6       0.89032    0.30028    -0.11194   1.00
H2       0.92050    0.30741    -0.05791   1.00
C6       0.94983    0.26369    -0.09147   1.00
H2       0.89639    0.28193    0.01642   1.00
C6       0.88592    0.22294    0.03366   1.00
C6       0.94812    0.24863    0.00664   1.00
H2       0.84902    0.22158    -0.08831   1.00
C6       0.89741    0.18335    -0.07772   1.00
C6       0.83677    0.18524    -0.03849   1.00
C6       0.76156    0.36808    -0.01071   1.00
C6       0.73736    0.35967    0.05775   1.00
H2       0.77441    0.40456    0.03788   1.00
H2       0.80189    0.34494    0.10949   1.00
C6       0.86377    0.34550    0.11622   1.00
C6       0.82028    0.40441    0.11607   1.00
H2       0.88001    0.38919    0.04625   1.00
C6       0.87463    0.37332    -0.01336   1.00
C6       0.84513    0.43239    0.01756   1.00
H2       0.86621    0.31933    -0.10346   1.00
H2       0.87865    0.27744    -0.13090   1.00
H2       0.91040    0.31810    -0.12917   1.00
H2       0.97185    0.28632    -0.09608   1.00
H2       0.96229    0.24217    -0.07178   1.00
H2       0.94551    0.24942    -0.11964   1.00
H2       0.89598    0.22929    0.06328   1.00
H2       0.85420    0.22357    0.03468   1.00
H2       0.89534    0.19337    0.02648   1.00
H2       0.96315    0.27220    -0.00862   1.00
H2       0.95818    0.24984    0.03692   1.00
H2       0.95753    0.22070    -0.00550   1.00
H2       0.91911    0.17742    -0.05514   1.00
H2       0.88515    0.15539    -0.08708   1.00
H2       0.91206    0.19496    -0.10332   1.00
H2       0.85248    0.16553    -0.01902   1.00
H2       0.81625    0.20138    -0.02068   1.00
H2       0.81951    0.16709    -0.05828   1.00
H2       0.75152    0.33856    -0.01688   1.00
H2       0.73758    0.38780    -0.01809   1.00
H2       0.78549    0.37477    -0.03048   1.00
H2       0.71109    0.37543    0.04875   1.00
H2       0.73120    0.32873    0.05426   1.00
H2       0.74114    0.36566    0.08878   1.00
H2       0.86110    0.34360    0.14798   1.00
H2       0.86932    0.31593    0.10565   1.00
H2       0.88930    0.36335    0.10965   1.00
H2       0.79356    0.41838    0.10584   1.00
H2       0.81821    0.40255    0.14788   1.00
H2       0.84496    0.42335    0.10915   1.00
H2       0.85311    0.37006    -0.03656   1.00
H2       0.89774    0.39263    -0.02381   1.00
H2       0.88784    0.34497    -0.00834   1.00
H2       0.87099    0.44931    0.00956   1.00
H2       0.82407    0.43513    -0.00622   1.00
H2       0.83280    0.44618    0.04343   1.00
