data_IRMOF10_SG202_Ligand10_label_d.

_audit_creation_method             'generated by an auxiliary program of Tobunporous'

_symmetry_space_group_name_H-M     'P 1'
_symmetry_Int_Tables_number        1
_symmetry_cell_setting             triclinic

_cell_length_a                    34.2800
_cell_length_b                    34.2800
_cell_length_c                    34.2800
_cell_angle_alpha                 90.0000
_cell_angle_beta                  90.0000
_cell_angle_gamma                 90.0000

loop_
_atom_site_label
_atom_site_fract_x
_atom_site_fract_y
_atom_site_fract_z
_atom_site_occupancy
O1       0.75000    0.75000    0.75000   1.00
Zn1      0.71720    0.78280    0.78280   1.00
Zn1      0.78280    0.71720    0.78280   1.00
Zn1      0.78280    0.78280    0.71720   1.00
Zn1      0.71720    0.71720    0.71720   1.00
O2       0.72650    0.77350    0.83820   1.00
O2       0.72650    0.83820    0.77350   1.00
O2       0.66180    0.77350    0.77350   1.00
O2       0.77350    0.72650    0.83820   1.00
O2       0.83820    0.72650    0.77350   1.00
O2       0.77350    0.66180    0.77350   1.00
O2       0.77350    0.83820    0.72650   1.00
O2       0.83820    0.77350    0.72650   1.00
O2       0.77350    0.77350    0.66180   1.00
O2       0.66180    0.72650    0.72650   1.00
O2       0.72650    0.66180    0.72650   1.00
O2       0.72650    0.72650    0.66180   1.00
C1       0.75000    0.75000    0.85520   1.00
C1       0.75000    0.85520    0.75000   1.00
C1       0.64480    0.75000    0.75000   1.00
C1       0.85520    0.75000    0.75000   1.00
C1       0.75000    0.64480    0.75000   1.00
C1       0.75000    0.75000    0.64480   1.00
O1       0.25000    0.25000    0.75000   1.00
Zn1      0.21720    0.28280    0.78280   1.00
Zn1      0.28280    0.21720    0.78280   1.00
Zn1      0.28280    0.28280    0.71720   1.00
Zn1      0.21720    0.21720    0.71720   1.00
O2       0.22650    0.27350    0.83820   1.00
O2       0.22650    0.33820    0.77350   1.00
O2       0.16180    0.27350    0.77350   1.00
O2       0.27350    0.22650    0.83820   1.00
O2       0.33820    0.22650    0.77350   1.00
O2       0.27350    0.16180    0.77350   1.00
O2       0.27350    0.33820    0.72650   1.00
O2       0.33820    0.27350    0.72650   1.00
O2       0.27350    0.27350    0.66180   1.00
O2       0.16180    0.22650    0.72650   1.00
O2       0.22650    0.16180    0.72650   1.00
O2       0.22650    0.22650    0.66180   1.00
C1       0.25000    0.25000    0.85520   1.00
C1       0.25000    0.35520    0.75000   1.00
C1       0.14480    0.25000    0.75000   1.00
C1       0.35520    0.25000    0.75000   1.00
C1       0.25000    0.14480    0.75000   1.00
C1       0.25000    0.25000    0.64480   1.00
O1       0.25000    0.75000    0.25000   1.00
Zn1      0.21720    0.78280    0.28280   1.00
Zn1      0.28280    0.71720    0.28280   1.00
Zn1      0.28280    0.78280    0.21720   1.00
Zn1      0.21720    0.71720    0.21720   1.00
O2       0.22650    0.77350    0.33820   1.00
O2       0.22650    0.83820    0.27350   1.00
O2       0.16180    0.77350    0.27350   1.00
O2       0.27350    0.72650    0.33820   1.00
O2       0.33820    0.72650    0.27350   1.00
O2       0.27350    0.66180    0.27350   1.00
O2       0.27350    0.83820    0.22650   1.00
O2       0.33820    0.77350    0.22650   1.00
O2       0.27350    0.77350    0.16180   1.00
O2       0.16180    0.72650    0.22650   1.00
O2       0.22650    0.66180    0.22650   1.00
O2       0.22650    0.72650    0.16180   1.00
C1       0.25000    0.75000    0.35520   1.00
C1       0.25000    0.85520    0.25000   1.00
C1       0.14480    0.75000    0.25000   1.00
C1       0.35520    0.75000    0.25000   1.00
C1       0.25000    0.64480    0.25000   1.00
C1       0.25000    0.75000    0.14480   1.00
O1       0.75000    0.25000    0.25000   1.00
Zn1      0.71720    0.28280    0.28280   1.00
Zn1      0.78280    0.21720    0.28280   1.00
Zn1      0.78280    0.28280    0.21720   1.00
Zn1      0.71720    0.21720    0.21720   1.00
O2       0.72650    0.27350    0.33820   1.00
O2       0.72650    0.33820    0.27350   1.00
O2       0.66180    0.27350    0.27350   1.00
O2       0.77350    0.22650    0.33820   1.00
O2       0.83820    0.22650    0.27350   1.00
O2       0.77350    0.16180    0.27350   1.00
O2       0.77350    0.33820    0.22650   1.00
O2       0.83820    0.27350    0.22650   1.00
O2       0.77350    0.27350    0.16180   1.00
O2       0.66180    0.22650    0.22650   1.00
O2       0.72650    0.16180    0.22650   1.00
O2       0.72650    0.22650    0.16180   1.00
C1       0.75000    0.25000    0.35520   1.00
C1       0.75000    0.35520    0.25000   1.00
C1       0.64480    0.25000    0.25000   1.00
C1       0.85520    0.25000    0.25000   1.00
C1       0.75000    0.14480    0.25000   1.00
C1       0.75000    0.25000    0.14480   1.00
O1       0.25000    0.25000    0.25000   1.00
Zn1      0.28280    0.21720    0.21720   1.00
Zn1      0.21720    0.28280    0.21720   1.00
Zn1      0.21720    0.21720    0.28280   1.00
Zn1      0.28280    0.28280    0.28280   1.00
O2       0.27350    0.22650    0.16180   1.00
O2       0.27350    0.16180    0.22650   1.00
O2       0.33820    0.22650    0.22650   1.00
O2       0.22650    0.27350    0.16180   1.00
O2       0.16180    0.27350    0.22650   1.00
O2       0.22650    0.33820    0.22650   1.00
O2       0.22650    0.16180    0.27350   1.00
O2       0.16180    0.22650    0.27350   1.00
O2       0.22650    0.22650    0.33820   1.00
O2       0.33820    0.27350    0.27350   1.00
O2       0.27350    0.33820    0.27350   1.00
O2       0.27350    0.27350    0.33820   1.00
C1       0.25000    0.25000    0.14480   1.00
C1       0.25000    0.14480    0.25000   1.00
C1       0.35520    0.25000    0.25000   1.00
C1       0.14480    0.25000    0.25000   1.00
C1       0.25000    0.35520    0.25000   1.00
C1       0.25000    0.25000    0.35520   1.00
O1       0.75000    0.75000    0.25000   1.00
Zn1      0.78280    0.71720    0.21720   1.00
Zn1      0.71720    0.78280    0.21720   1.00
Zn1      0.71720    0.71720    0.28280   1.00
Zn1      0.78280    0.78280    0.28280   1.00
O2       0.77350    0.72650    0.16180   1.00
O2       0.77350    0.66180    0.22650   1.00
O2       0.83820    0.72650    0.22650   1.00
O2       0.72650    0.77350    0.16180   1.00
O2       0.66180    0.77350    0.22650   1.00
O2       0.72650    0.83820    0.22650   1.00
O2       0.72650    0.66180    0.27350   1.00
O2       0.66180    0.72650    0.27350   1.00
O2       0.72650    0.72650    0.33820   1.00
O2       0.83820    0.77350    0.27350   1.00
O2       0.77350    0.83820    0.27350   1.00
O2       0.77350    0.77350    0.33820   1.00
C1       0.75000    0.75000    0.14480   1.00
C1       0.75000    0.64480    0.25000   1.00
C1       0.85520    0.75000    0.25000   1.00
C1       0.64480    0.75000    0.25000   1.00
C1       0.75000    0.85520    0.25000   1.00
C1       0.75000    0.75000    0.35520   1.00
O1       0.75000    0.25000    0.75000   1.00
Zn1      0.78280    0.21720    0.71720   1.00
Zn1      0.71720    0.28280    0.71720   1.00
Zn1      0.71720    0.21720    0.78280   1.00
Zn1      0.78280    0.28280    0.78280   1.00
O2       0.77350    0.22650    0.66180   1.00
O2       0.77350    0.16180    0.72650   1.00
O2       0.83820    0.22650    0.72650   1.00
O2       0.72650    0.27350    0.66180   1.00
O2       0.66180    0.27350    0.72650   1.00
O2       0.72650    0.33820    0.72650   1.00
O2       0.72650    0.16180    0.77350   1.00
O2       0.66180    0.22650    0.77350   1.00
O2       0.72650    0.22650    0.83820   1.00
O2       0.83820    0.27350    0.77350   1.00
O2       0.77350    0.33820    0.77350   1.00
O2       0.77350    0.27350    0.83820   1.00
C1       0.75000    0.25000    0.64480   1.00
C1       0.75000    0.14480    0.75000   1.00
C1       0.85520    0.25000    0.75000   1.00
C1       0.64480    0.25000    0.75000   1.00
C1       0.75000    0.35520    0.75000   1.00
C1       0.75000    0.25000    0.85520   1.00
O1       0.25000    0.75000    0.75000   1.00
Zn1      0.28280    0.71720    0.71720   1.00
Zn1      0.21720    0.78280    0.71720   1.00
Zn1      0.21720    0.71720    0.78280   1.00
Zn1      0.28280    0.78280    0.78280   1.00
O2       0.27350    0.72650    0.66180   1.00
O2       0.27350    0.66180    0.72650   1.00
O2       0.33820    0.72650    0.72650   1.00
O2       0.22650    0.77350    0.66180   1.00
O2       0.16180    0.77350    0.72650   1.00
O2       0.22650    0.83820    0.72650   1.00
O2       0.22650    0.66180    0.77350   1.00
O2       0.16180    0.72650    0.77350   1.00
O2       0.22650    0.72650    0.83820   1.00
O2       0.33820    0.77350    0.77350   1.00
O2       0.27350    0.83820    0.77350   1.00
O2       0.27350    0.77350    0.83820   1.00
C1       0.25000    0.75000    0.64480   1.00
C1       0.25000    0.64480    0.75000   1.00
C1       0.35520    0.75000    0.75000   1.00
C1       0.14480    0.75000    0.75000   1.00
C1       0.25000    0.85520    0.75000   1.00
C1       0.25000    0.75000    0.85520   1.00
C4       0.75006    0.75038    0.97915   1.00
C4       0.74994    0.74962    1.02085   1.00
C3       0.78448    0.75769    0.95751   1.00
C3       0.78073    0.73271    1.04252   1.00
C3       0.71575    0.74297    0.95738   1.00
C3       0.71922    0.76665    1.04259   1.00
C2       0.75016    0.74997    0.89482   1.00
C2       0.75016    0.74997    1.10518   1.00
C3a      0.78468    0.75753    0.91599   1.00
C3       0.78076    0.73290    1.08382   1.00
C3       0.71586    0.74278    0.91611   1.00
C3a      0.71914    0.76691    1.08403   1.00
H1       0.81134    0.76386    0.97294   1.00
H1       0.80484    0.71888    1.02750   1.00
C5       0.82187    0.76563    0.89410   1.00
H1       0.80486    0.71961    1.09933   1.00
H1       0.68905    0.73669    0.90056   1.00
C5       0.68553    0.78548    1.10535   1.00
H1       0.69549    0.78097    1.02747   1.00
H1       0.68868    0.73647    0.97230   1.00
H2       0.65848    0.76900    1.09837   1.00
H2       0.68972    0.78380    1.13747   1.00
N1       0.68132    0.82640    1.09395   1.00
C6       0.67243    0.83977    1.05810   1.00
C6       0.68527    0.85755    1.11757   1.00
C6       0.67085    0.87998    1.05873   1.00
C6       0.67902    0.89129    1.09656   1.00
H3       0.66733    0.82152    1.03281   1.00
H3       0.69241    0.85595    1.14831   1.00
H3       0.66440    0.89896    1.03436   1.00
H3       0.68025    0.92081    1.10758   1.00
H2       0.81597    0.76357    0.86228   1.00
H2       0.83264    0.79562    0.90001   1.00
N1       0.85198    0.73764    0.90523   1.00
C6       0.87124    0.71033    0.88078   1.00
C6       0.86843    0.73214    0.94285   1.00
C6       0.89781    0.68951    0.90277   1.00
C6       0.89608    0.70289    0.94091   1.00
H3       0.86571    0.70657    0.84992   1.00
H3       0.86011    0.74818    0.96876   1.00
H3       0.91669    0.66663    0.89205   1.00
H3       0.91333    0.69220    0.96505   1.00
C4       0.75038    0.97915    0.75006   1.00
C4       0.74962    1.02085    0.74994   1.00
C3       0.75769    0.95751    0.78448   1.00
C3       0.73271    1.04252    0.78073   1.00
C3       0.74297    0.95738    0.71575   1.00
C3       0.76665    1.04259    0.71922   1.00
C2       0.74997    0.89482    0.75016   1.00
C2       0.74997    1.10518    0.75016   1.00
C3a      0.75753    0.91599    0.78468   1.00
C3       0.73290    1.08382    0.78076   1.00
C3       0.74278    0.91611    0.71586   1.00
C3a      0.76691    1.08403    0.71914   1.00
H1       0.76386    0.97294    0.81134   1.00
H1       0.71888    1.02750    0.80484   1.00
C5       0.76563    0.89410    0.82187   1.00
H1       0.71961    1.09933    0.80486   1.00
H1       0.73669    0.90056    0.68905   1.00
C5       0.78548    1.10535    0.68553   1.00
H1       0.78097    1.02747    0.69549   1.00
H1       0.73647    0.97230    0.68868   1.00
H2       0.76900    1.09837    0.65848   1.00
H2       0.78380    1.13747    0.68972   1.00
N1       0.82640    1.09395    0.68132   1.00
C6       0.83977    1.05810    0.67243   1.00
C6       0.85755    1.11757    0.68527   1.00
C6       0.87998    1.05873    0.67085   1.00
C6       0.89129    1.09656    0.67902   1.00
H3       0.82152    1.03281    0.66733   1.00
H3       0.85595    1.14831    0.69241   1.00
H3       0.89896    1.03436    0.66440   1.00
H3       0.92081    1.10758    0.68025   1.00
H2       0.76357    0.86228    0.81597   1.00
H2       0.79562    0.90001    0.83264   1.00
N1       0.73764    0.90523    0.85198   1.00
C6       0.71033    0.88078    0.87124   1.00
C6       0.73214    0.94285    0.86843   1.00
C6       0.68951    0.90277    0.89781   1.00
C6       0.70289    0.94091    0.89608   1.00
H3       0.70657    0.84992    0.86571   1.00
H3       0.74818    0.96876    0.86011   1.00
H3       0.66663    0.89205    0.91669   1.00
H3       0.69220    0.96505    0.91333   1.00
C4       0.52085    0.75006    0.74962   1.00
C4       0.47915    0.74994    0.75038   1.00
C3       0.54249    0.78448    0.74231   1.00
C3       0.45748    0.78073    0.76729   1.00
C3       0.54262    0.71575    0.75703   1.00
C3       0.45741    0.71922    0.73335   1.00
C2       0.60518    0.75016    0.75003   1.00
C2       0.39482    0.75016    0.75003   1.00
C3a      0.58401    0.78468    0.74247   1.00
C3       0.41618    0.78076    0.76710   1.00
C3       0.58389    0.71586    0.75722   1.00
C3a      0.41597    0.71914    0.73309   1.00
H1       0.52706    0.81134    0.73614   1.00
H1       0.47250    0.80484    0.78112   1.00
C5       0.60590    0.82187    0.73437   1.00
H1       0.40067    0.80486    0.78039   1.00
H1       0.59944    0.68905    0.76331   1.00
C5       0.39465    0.68553    0.71452   1.00
H1       0.47253    0.69549    0.71903   1.00
H1       0.52770    0.68868    0.76353   1.00
H2       0.40163    0.65848    0.73100   1.00
H2       0.36253    0.68972    0.71620   1.00
N1       0.40605    0.68132    0.67360   1.00
C6       0.44190    0.67243    0.66023   1.00
C6       0.38243    0.68527    0.64245   1.00
C6       0.44127    0.67085    0.62002   1.00
C6       0.40344    0.67902    0.60871   1.00
H3       0.46719    0.66733    0.67848   1.00
H3       0.35169    0.69241    0.64405   1.00
H3       0.46564    0.66440    0.60104   1.00
H3       0.39242    0.68025    0.57919   1.00
H2       0.63772    0.81597    0.73643   1.00
H2       0.59999    0.83264    0.70438   1.00
N1       0.59477    0.85198    0.76236   1.00
C6       0.61922    0.87124    0.78967   1.00
C6       0.55715    0.86843    0.76786   1.00
C6       0.59723    0.89781    0.81049   1.00
C6       0.55909    0.89608    0.79711   1.00
H3       0.65008    0.86571    0.79343   1.00
H3       0.53124    0.86011    0.75182   1.00
H3       0.60795    0.91669    0.83337   1.00
H3       0.53495    0.91333    0.80780   1.00
C4       0.97915    0.75006    0.75038   1.00
C4       1.02085    0.74994    0.74962   1.00
C3       0.95751    0.78448    0.75769   1.00
C3       1.04252    0.78073    0.73271   1.00
C3       0.95738    0.71575    0.74297   1.00
C3       1.04259    0.71922    0.76665   1.00
C2       0.89482    0.75016    0.74997   1.00
C2       1.10518    0.75016    0.74997   1.00
C3a      0.91599    0.78468    0.75753   1.00
C3       1.08382    0.78076    0.73290   1.00
C3       0.91611    0.71586    0.74278   1.00
C3a      1.08403    0.71914    0.76691   1.00
H1       0.97294    0.81134    0.76386   1.00
H1       1.02750    0.80484    0.71888   1.00
C5       0.89410    0.82187    0.76563   1.00
H1       1.09933    0.80486    0.71961   1.00
H1       0.90056    0.68905    0.73669   1.00
C5       1.10535    0.68553    0.78548   1.00
H1       1.02747    0.69549    0.78097   1.00
H1       0.97230    0.68868    0.73647   1.00
H2       1.09837    0.65848    0.76900   1.00
H2       1.13747    0.68972    0.78380   1.00
N1       1.09395    0.68132    0.82640   1.00
C6       1.05810    0.67243    0.83977   1.00
C6       1.11757    0.68527    0.85755   1.00
C6       1.05873    0.67085    0.87998   1.00
C6       1.09656    0.67902    0.89129   1.00
H3       1.03281    0.66733    0.82152   1.00
H3       1.14831    0.69241    0.85595   1.00
H3       1.03436    0.66440    0.89896   1.00
H3       1.10758    0.68025    0.92081   1.00
H2       0.86228    0.81597    0.76357   1.00
H2       0.90001    0.83264    0.79562   1.00
N1       0.90523    0.85198    0.73764   1.00
C6       0.88078    0.87124    0.71033   1.00
C6       0.94285    0.86843    0.73214   1.00
C6       0.90277    0.89781    0.68951   1.00
C6       0.94091    0.89608    0.70289   1.00
H3       0.84992    0.86571    0.70657   1.00
H3       0.96876    0.86011    0.74818   1.00
H3       0.89205    0.91669    0.66663   1.00
H3       0.96505    0.91333    0.69220   1.00
C4       0.74962    0.52085    0.75006   1.00
C4       0.75038    0.47915    0.74994   1.00
C3       0.74231    0.54249    0.78448   1.00
C3       0.76729    0.45748    0.78073   1.00
C3       0.75703    0.54262    0.71575   1.00
C3       0.73335    0.45741    0.71922   1.00
C2       0.75003    0.60518    0.75016   1.00
C2       0.75003    0.39482    0.75016   1.00
C3a      0.74247    0.58401    0.78468   1.00
C3       0.76710    0.41618    0.78076   1.00
C3       0.75722    0.58389    0.71586   1.00
C3a      0.73309    0.41597    0.71914   1.00
H1       0.73614    0.52706    0.81134   1.00
H1       0.78112    0.47250    0.80484   1.00
C5       0.73437    0.60590    0.82187   1.00
H1       0.78039    0.40067    0.80486   1.00
H1       0.76331    0.59944    0.68905   1.00
C5       0.71452    0.39465    0.68553   1.00
H1       0.71903    0.47253    0.69549   1.00
H1       0.76353    0.52770    0.68868   1.00
H2       0.73100    0.40163    0.65848   1.00
H2       0.71620    0.36253    0.68972   1.00
N1       0.67360    0.40605    0.68132   1.00
C6       0.66023    0.44190    0.67243   1.00
C6       0.64245    0.38243    0.68527   1.00
C6       0.62002    0.44127    0.67085   1.00
C6       0.60871    0.40344    0.67902   1.00
H3       0.67848    0.46719    0.66733   1.00
H3       0.64405    0.35169    0.69241   1.00
H3       0.60104    0.46564    0.66440   1.00
H3       0.57919    0.39242    0.68025   1.00
H2       0.73643    0.63772    0.81597   1.00
H2       0.70438    0.59999    0.83264   1.00
N1       0.76236    0.59477    0.85198   1.00
C6       0.78967    0.61922    0.87124   1.00
C6       0.76786    0.55715    0.86843   1.00
C6       0.81049    0.59723    0.89781   1.00
C6       0.79711    0.55909    0.89608   1.00
H3       0.79343    0.65008    0.86571   1.00
H3       0.75182    0.53124    0.86011   1.00
H3       0.83337    0.60795    0.91669   1.00
H3       0.80780    0.53495    0.91333   1.00
C4       0.75006    0.74962    0.52085   1.00
C4       0.74994    0.75038    0.47915   1.00
C3       0.78448    0.74231    0.54249   1.00
C3       0.78073    0.76729    0.45748   1.00
C3       0.71575    0.75703    0.54262   1.00
C3       0.71922    0.73335    0.45741   1.00
C2       0.75016    0.75003    0.60518   1.00
C2       0.75016    0.75003    0.39482   1.00
C3a      0.78468    0.74247    0.58401   1.00
C3       0.78076    0.76710    0.41618   1.00
C3       0.71586    0.75722    0.58389   1.00
C3a      0.71914    0.73309    0.41597   1.00
H1       0.81134    0.73614    0.52706   1.00
H1       0.80484    0.78112    0.47250   1.00
C5       0.82187    0.73437    0.60590   1.00
H1       0.80486    0.78039    0.40067   1.00
H1       0.68905    0.76331    0.59944   1.00
C5       0.68553    0.71452    0.39465   1.00
H1       0.69549    0.71903    0.47253   1.00
H1       0.68868    0.76353    0.52770   1.00
H2       0.65848    0.73100    0.40163   1.00
H2       0.68972    0.71620    0.36253   1.00
N1       0.68132    0.67360    0.40605   1.00
C6       0.67243    0.66023    0.44190   1.00
C6       0.68527    0.64245    0.38243   1.00
C6       0.67085    0.62002    0.44127   1.00
C6       0.67902    0.60871    0.40344   1.00
H3       0.66733    0.67848    0.46719   1.00
H3       0.69241    0.64405    0.35169   1.00
H3       0.66440    0.60104    0.46564   1.00
H3       0.68025    0.57919    0.39242   1.00
H2       0.81597    0.73643    0.63772   1.00
H2       0.83264    0.70438    0.59999   1.00
N1       0.85198    0.76236    0.59477   1.00
C6       0.87124    0.78967    0.61922   1.00
C6       0.86843    0.76786    0.55715   1.00
C6       0.89781    0.81049    0.59723   1.00
C6       0.89608    0.79711    0.55909   1.00
H3       0.86571    0.79343    0.65008   1.00
H3       0.86011    0.75182    0.53124   1.00
H3       0.91669    0.83337    0.60795   1.00
H3       0.91333    0.80780    0.53495   1.00
C4       0.25006    0.25038    0.97915   1.00
C4       0.24994    0.24962    1.02085   1.00
C3       0.28448    0.25769    0.95751   1.00
C3       0.28073    0.23271    1.04252   1.00
C3       0.21575    0.24297    0.95738   1.00
C3       0.21922    0.26665    1.04259   1.00
C2       0.25016    0.24997    0.89482   1.00
C2       0.25016    0.24997    1.10518   1.00
C3a      0.28468    0.25753    0.91599   1.00
C3       0.28076    0.23290    1.08382   1.00
C3       0.21586    0.24278    0.91611   1.00
C3a      0.21914    0.26691    1.08403   1.00
H1       0.31134    0.26386    0.97294   1.00
H1       0.30484    0.21888    1.02750   1.00
C5       0.32187    0.26563    0.89410   1.00
H1       0.30486    0.21961    1.09933   1.00
H1       0.18905    0.23669    0.90056   1.00
C5       0.18553    0.28548    1.10535   1.00
H1       0.19549    0.28097    1.02747   1.00
H1       0.18868    0.23647    0.97230   1.00
H2       0.15848    0.26900    1.09837   1.00
H2       0.18972    0.28380    1.13747   1.00
N1       0.18132    0.32640    1.09395   1.00
C6       0.17243    0.33977    1.05810   1.00
C6       0.18527    0.35755    1.11757   1.00
C6       0.17085    0.37998    1.05873   1.00
C6       0.17902    0.39129    1.09656   1.00
H3       0.16733    0.32152    1.03281   1.00
H3       0.19241    0.35595    1.14831   1.00
H3       0.16440    0.39896    1.03436   1.00
H3       0.18025    0.42081    1.10758   1.00
H2       0.31597    0.26357    0.86228   1.00
H2       0.33264    0.29562    0.90001   1.00
N1       0.35198    0.23764    0.90523   1.00
C6       0.37124    0.21033    0.88078   1.00
C6       0.36843    0.23214    0.94285   1.00
C6       0.39781    0.18951    0.90277   1.00
C6       0.39608    0.20289    0.94091   1.00
H3       0.36571    0.20657    0.84992   1.00
H3       0.36011    0.24818    0.96876   1.00
H3       0.41669    0.16663    0.89205   1.00
H3       0.41333    0.19220    0.96505   1.00
C4       0.25038    0.47915    0.75006   1.00
C4       0.24962    0.52085    0.74994   1.00
C3       0.25769    0.45751    0.78448   1.00
C3       0.23271    0.54252    0.78073   1.00
C3       0.24297    0.45738    0.71575   1.00
C3       0.26665    0.54259    0.71922   1.00
C2       0.24997    0.39482    0.75016   1.00
C2       0.24997    0.60518    0.75016   1.00
C3a      0.25753    0.41599    0.78468   1.00
C3       0.23290    0.58382    0.78076   1.00
C3       0.24278    0.41611    0.71586   1.00
C3a      0.26691    0.58403    0.71914   1.00
H1       0.26386    0.47294    0.81134   1.00
H1       0.21888    0.52750    0.80484   1.00
C5       0.26563    0.39410    0.82187   1.00
H1       0.21961    0.59933    0.80486   1.00
H1       0.23669    0.40056    0.68905   1.00
C5       0.28548    0.60535    0.68553   1.00
H1       0.28097    0.52747    0.69549   1.00
H1       0.23647    0.47230    0.68868   1.00
H2       0.26900    0.59837    0.65848   1.00
H2       0.28380    0.63747    0.68972   1.00
N1       0.32640    0.59395    0.68132   1.00
C6       0.33977    0.55810    0.67243   1.00
C6       0.35755    0.61757    0.68527   1.00
C6       0.37998    0.55873    0.67085   1.00
C6       0.39129    0.59656    0.67902   1.00
H3       0.32152    0.53281    0.66733   1.00
H3       0.35595    0.64831    0.69241   1.00
H3       0.39896    0.53436    0.66440   1.00
H3       0.42081    0.60758    0.68025   1.00
H2       0.26357    0.36228    0.81597   1.00
H2       0.29562    0.40001    0.83264   1.00
N1       0.23764    0.40523    0.85198   1.00
C6       0.21033    0.38078    0.87124   1.00
C6       0.23214    0.44285    0.86843   1.00
C6       0.18951    0.40277    0.89781   1.00
C6       0.20289    0.44091    0.89608   1.00
H3       0.20657    0.34992    0.86571   1.00
H3       0.24818    0.46876    0.86011   1.00
H3       0.16663    0.39205    0.91669   1.00
H3       0.19220    0.46505    0.91333   1.00
C4       0.02085    0.25006    0.74962   1.00
C4       -0.02085   0.24994    0.75038   1.00
C3       0.04249    0.28448    0.74231   1.00
C3       -0.04252   0.28073    0.76729   1.00
C3       0.04262    0.21575    0.75703   1.00
C3       -0.04259   0.21922    0.73335   1.00
C2       0.10518    0.25016    0.75003   1.00
C2       -0.10518   0.25016    0.75003   1.00
C3a      0.08401    0.28468    0.74247   1.00
C3       -0.08382   0.28076    0.76710   1.00
C3       0.08389    0.21586    0.75722   1.00
C3a      -0.08403   0.21914    0.73309   1.00
H1       0.02706    0.31134    0.73614   1.00
H1       -0.02750   0.30484    0.78112   1.00
C5       0.10590    0.32187    0.73437   1.00
H1       -0.09933   0.30486    0.78039   1.00
H1       0.09944    0.18905    0.76331   1.00
C5       -0.10535   0.18553    0.71452   1.00
H1       -0.02747   0.19549    0.71903   1.00
H1       0.02770    0.18868    0.76353   1.00
H2       -0.09837   0.15848    0.73100   1.00
H2       -0.13747   0.18972    0.71620   1.00
N1       -0.09395   0.18132    0.67360   1.00
C6       -0.05810   0.17243    0.66023   1.00
C6       -0.11757   0.18527    0.64245   1.00
C6       -0.05873   0.17085    0.62002   1.00
C6       -0.09656   0.17902    0.60871   1.00
H3       -0.03281   0.16733    0.67848   1.00
H3       -0.14831   0.19241    0.64405   1.00
H3       -0.03436   0.16440    0.60104   1.00
H3       -0.10758   0.18025    0.57919   1.00
H2       0.13772    0.31597    0.73643   1.00
H2       0.09999    0.33264    0.70438   1.00
N1       0.09477    0.35198    0.76236   1.00
C6       0.11922    0.37124    0.78967   1.00
C6       0.05715    0.36843    0.76786   1.00
C6       0.09723    0.39781    0.81049   1.00
C6       0.05909    0.39608    0.79711   1.00
H3       0.15008    0.36571    0.79343   1.00
H3       0.03124    0.36011    0.75182   1.00
H3       0.10795    0.41669    0.83337   1.00
H3       0.03495    0.41333    0.80780   1.00
C4       0.47915    0.25006    0.75038   1.00
C4       0.52085    0.24994    0.74962   1.00
C3       0.45751    0.28448    0.75769   1.00
C3       0.54252    0.28073    0.73271   1.00
C3       0.45738    0.21575    0.74297   1.00
C3       0.54259    0.21922    0.76665   1.00
C2       0.39482    0.25016    0.74997   1.00
C2       0.60518    0.25016    0.74997   1.00
C3a      0.41599    0.28468    0.75753   1.00
C3       0.58382    0.28076    0.73290   1.00
C3       0.41611    0.21586    0.74278   1.00
C3a      0.58403    0.21914    0.76691   1.00
H1       0.47294    0.31134    0.76386   1.00
H1       0.52750    0.30484    0.71888   1.00
C5       0.39410    0.32187    0.76563   1.00
H1       0.59933    0.30486    0.71961   1.00
H1       0.40056    0.18905    0.73669   1.00
C5       0.60535    0.18553    0.78548   1.00
H1       0.52747    0.19549    0.78097   1.00
H1       0.47230    0.18868    0.73647   1.00
H2       0.59837    0.15848    0.76900   1.00
H2       0.63747    0.18972    0.78380   1.00
N1       0.59395    0.18132    0.82640   1.00
C6       0.55810    0.17243    0.83977   1.00
C6       0.61757    0.18527    0.85755   1.00
C6       0.55873    0.17085    0.87998   1.00
C6       0.59656    0.17902    0.89129   1.00
H3       0.53281    0.16733    0.82152   1.00
H3       0.64831    0.19241    0.85595   1.00
H3       0.53436    0.16440    0.89896   1.00
H3       0.60758    0.18025    0.92081   1.00
H2       0.36228    0.31597    0.76357   1.00
H2       0.40001    0.33264    0.79562   1.00
N1       0.40523    0.35198    0.73764   1.00
C6       0.38078    0.37124    0.71033   1.00
C6       0.44285    0.36843    0.73214   1.00
C6       0.40277    0.39781    0.68951   1.00
C6       0.44091    0.39608    0.70289   1.00
H3       0.34992    0.36571    0.70657   1.00
H3       0.46876    0.36011    0.74818   1.00
H3       0.39205    0.41669    0.66663   1.00
H3       0.46505    0.41333    0.69220   1.00
C4       0.24962    0.02085    0.75006   1.00
C4       0.25038    -0.02085   0.74994   1.00
C3       0.24231    0.04249    0.78448   1.00
C3       0.26729    -0.04252   0.78073   1.00
C3       0.25703    0.04262    0.71575   1.00
C3       0.23335    -0.04259   0.71922   1.00
C2       0.25003    0.10518    0.75016   1.00
C2       0.25003    -0.10518   0.75016   1.00
C3a      0.24247    0.08401    0.78468   1.00
C3       0.26710    -0.08382   0.78076   1.00
C3       0.25722    0.08389    0.71586   1.00
C3a      0.23309    -0.08403   0.71914   1.00
H1       0.23614    0.02706    0.81134   1.00
H1       0.28112    -0.02750   0.80484   1.00
C5       0.23437    0.10590    0.82187   1.00
H1       0.28039    -0.09933   0.80486   1.00
H1       0.26331    0.09944    0.68905   1.00
C5       0.21452    -0.10535   0.68553   1.00
H1       0.21903    -0.02747   0.69549   1.00
H1       0.26353    0.02770    0.68868   1.00
H2       0.23100    -0.09837   0.65848   1.00
H2       0.21620    -0.13747   0.68972   1.00
N1       0.17360    -0.09395   0.68132   1.00
C6       0.16023    -0.05810   0.67243   1.00
C6       0.14245    -0.11757   0.68527   1.00
C6       0.12002    -0.05873   0.67085   1.00
C6       0.10871    -0.09656   0.67902   1.00
H3       0.17848    -0.03281   0.66733   1.00
H3       0.14405    -0.14831   0.69241   1.00
H3       0.10104    -0.03436   0.66440   1.00
H3       0.07919    -0.10758   0.68025   1.00
H2       0.23643    0.13772    0.81597   1.00
H2       0.20438    0.09999    0.83264   1.00
N1       0.26236    0.09477    0.85198   1.00
C6       0.28967    0.11922    0.87124   1.00
C6       0.26786    0.05715    0.86843   1.00
C6       0.31049    0.09723    0.89781   1.00
C6       0.29711    0.05909    0.89608   1.00
H3       0.29343    0.15008    0.86571   1.00
H3       0.25182    0.03124    0.86011   1.00
H3       0.33337    0.10795    0.91669   1.00
H3       0.30780    0.03495    0.91333   1.00
C4       0.25006    0.24962    0.52085   1.00
C4       0.24994    0.25038    0.47915   1.00
C3       0.28448    0.24231    0.54249   1.00
C3       0.28073    0.26729    0.45748   1.00
C3       0.21575    0.25703    0.54262   1.00
C3       0.21922    0.23335    0.45741   1.00
C2       0.25016    0.25003    0.60518   1.00
C2       0.25016    0.25003    0.39482   1.00
C3a      0.28468    0.24247    0.58401   1.00
C3       0.28076    0.26710    0.41618   1.00
C3       0.21586    0.25722    0.58389   1.00
C3a      0.21914    0.23309    0.41597   1.00
H1       0.31134    0.23614    0.52706   1.00
H1       0.30484    0.28112    0.47250   1.00
C5       0.32187    0.23437    0.60590   1.00
H1       0.30486    0.28039    0.40067   1.00
H1       0.18905    0.26331    0.59944   1.00
C5       0.18553    0.21452    0.39465   1.00
H1       0.19549    0.21903    0.47253   1.00
H1       0.18868    0.26353    0.52770   1.00
H2       0.15848    0.23100    0.40163   1.00
H2       0.18972    0.21620    0.36253   1.00
N1       0.18132    0.17360    0.40605   1.00
C6       0.17243    0.16023    0.44190   1.00
C6       0.18527    0.14245    0.38243   1.00
C6       0.17085    0.12002    0.44127   1.00
C6       0.17902    0.10871    0.40344   1.00
H3       0.16733    0.17848    0.46719   1.00
H3       0.19241    0.14405    0.35169   1.00
H3       0.16440    0.10104    0.46564   1.00
H3       0.18025    0.07919    0.39242   1.00
H2       0.31597    0.23643    0.63772   1.00
H2       0.33264    0.20438    0.59999   1.00
N1       0.35198    0.26236    0.59477   1.00
C6       0.37124    0.28967    0.61922   1.00
C6       0.36843    0.26786    0.55715   1.00
C6       0.39781    0.31049    0.59723   1.00
C6       0.39608    0.29711    0.55909   1.00
H3       0.36571    0.29343    0.65008   1.00
H3       0.36011    0.25182    0.53124   1.00
H3       0.41669    0.33337    0.60795   1.00
H3       0.41333    0.30780    0.53495   1.00
C4       0.25006    0.75038    0.47915   1.00
C4       0.24994    0.74962    0.52085   1.00
C3       0.28448    0.75769    0.45751   1.00
C3       0.28073    0.73271    0.54252   1.00
C3       0.21575    0.74297    0.45738   1.00
C3       0.21922    0.76665    0.54259   1.00
C2       0.25016    0.74997    0.39482   1.00
C2       0.25016    0.74997    0.60518   1.00
C3a      0.28468    0.75753    0.41599   1.00
C3       0.28076    0.73290    0.58382   1.00
C3       0.21586    0.74278    0.41611   1.00
C3a      0.21914    0.76691    0.58403   1.00
H1       0.31134    0.76386    0.47294   1.00
H1       0.30484    0.71888    0.52750   1.00
C5       0.32187    0.76563    0.39410   1.00
H1       0.30486    0.71961    0.59933   1.00
H1       0.18905    0.73669    0.40056   1.00
C5       0.18553    0.78548    0.60535   1.00
H1       0.19549    0.78097    0.52747   1.00
H1       0.18868    0.73647    0.47230   1.00
H2       0.15848    0.76900    0.59837   1.00
H2       0.18972    0.78380    0.63747   1.00
N1       0.18132    0.82640    0.59395   1.00
C6       0.17243    0.83977    0.55810   1.00
C6       0.18527    0.85755    0.61757   1.00
C6       0.17085    0.87998    0.55873   1.00
C6       0.17902    0.89129    0.59656   1.00
H3       0.16733    0.82152    0.53281   1.00
H3       0.19241    0.85595    0.64831   1.00
H3       0.16440    0.89896    0.53436   1.00
H3       0.18025    0.92081    0.60758   1.00
H2       0.31597    0.76357    0.36228   1.00
H2       0.33264    0.79562    0.40001   1.00
N1       0.35198    0.73764    0.40523   1.00
C6       0.37124    0.71033    0.38078   1.00
C6       0.36843    0.73214    0.44285   1.00
C6       0.39781    0.68951    0.40277   1.00
C6       0.39608    0.70289    0.44091   1.00
H3       0.36571    0.70657    0.34992   1.00
H3       0.36011    0.74818    0.46876   1.00
H3       0.41669    0.66663    0.39205   1.00
H3       0.41333    0.69220    0.46505   1.00
C4       0.25038    0.97915    0.25006   1.00
C4       0.24962    1.02085    0.24994   1.00
C3       0.25769    0.95751    0.28448   1.00
C3       0.23271    1.04252    0.28073   1.00
C3       0.24297    0.95738    0.21575   1.00
C3       0.26665    1.04259    0.21922   1.00
C2       0.24997    0.89482    0.25016   1.00
C2       0.24997    1.10518    0.25016   1.00
C3a      0.25753    0.91599    0.28468   1.00
C3       0.23290    1.08382    0.28076   1.00
C3       0.24278    0.91611    0.21586   1.00
C3a      0.26691    1.08403    0.21914   1.00
H1       0.26386    0.97294    0.31134   1.00
H1       0.21888    1.02750    0.30484   1.00
C5       0.26563    0.89410    0.32187   1.00
H1       0.21961    1.09933    0.30486   1.00
H1       0.23669    0.90056    0.18905   1.00
C5       0.28548    1.10535    0.18553   1.00
H1       0.28097    1.02747    0.19549   1.00
H1       0.23647    0.97230    0.18868   1.00
H2       0.26900    1.09837    0.15848   1.00
H2       0.28380    1.13747    0.18972   1.00
N1       0.32640    1.09395    0.18132   1.00
C6       0.33977    1.05810    0.17243   1.00
C6       0.35755    1.11757    0.18527   1.00
C6       0.37998    1.05873    0.17085   1.00
C6       0.39129    1.09656    0.17902   1.00
H3       0.32152    1.03281    0.16733   1.00
H3       0.35595    1.14831    0.19241   1.00
H3       0.39896    1.03436    0.16440   1.00
H3       0.42081    1.10758    0.18025   1.00
H2       0.26357    0.86228    0.31597   1.00
H2       0.29562    0.90001    0.33264   1.00
N1       0.23764    0.90523    0.35198   1.00
C6       0.21033    0.88078    0.37124   1.00
C6       0.23214    0.94285    0.36843   1.00
C6       0.18951    0.90277    0.39781   1.00
C6       0.20289    0.94091    0.39608   1.00
H3       0.20657    0.84992    0.36571   1.00
H3       0.24818    0.96876    0.36011   1.00
H3       0.16663    0.89205    0.41669   1.00
H3       0.19220    0.96505    0.41333   1.00
C4       0.02085    0.75006    0.24962   1.00
C4       -0.02085   0.74994    0.25038   1.00
C3       0.04249    0.78448    0.24231   1.00
C3       -0.04252   0.78073    0.26729   1.00
C3       0.04262    0.71575    0.25703   1.00
C3       -0.04259   0.71922    0.23335   1.00
C2       0.10518    0.75016    0.25003   1.00
C2       -0.10518   0.75016    0.25003   1.00
C3a      0.08401    0.78468    0.24247   1.00
C3       -0.08382   0.78076    0.26710   1.00
C3       0.08389    0.71586    0.25722   1.00
C3a      -0.08403   0.71914    0.23309   1.00
H1       0.02706    0.81134    0.23614   1.00
H1       -0.02750   0.80484    0.28112   1.00
C5       0.10590    0.82187    0.23437   1.00
H1       -0.09933   0.80486    0.28039   1.00
H1       0.09944    0.68905    0.26331   1.00
C5       -0.10535   0.68553    0.21452   1.00
H1       -0.02747   0.69549    0.21903   1.00
H1       0.02770    0.68868    0.26353   1.00
H2       -0.09837   0.65848    0.23100   1.00
H2       -0.13747   0.68972    0.21620   1.00
N1       -0.09395   0.68132    0.17360   1.00
C6       -0.05810   0.67243    0.16023   1.00
C6       -0.11757   0.68527    0.14245   1.00
C6       -0.05873   0.67085    0.12002   1.00
C6       -0.09656   0.67902    0.10871   1.00
H3       -0.03281   0.66733    0.17848   1.00
H3       -0.14831   0.69241    0.14405   1.00
H3       -0.03436   0.66440    0.10104   1.00
H3       -0.10758   0.68025    0.07919   1.00
H2       0.13772    0.81597    0.23643   1.00
H2       0.09999    0.83264    0.20438   1.00
N1       0.09477    0.85198    0.26236   1.00
C6       0.11922    0.87124    0.28967   1.00
C6       0.05715    0.86843    0.26786   1.00
C6       0.09723    0.89781    0.31049   1.00
C6       0.05909    0.89608    0.29711   1.00
H3       0.15008    0.86571    0.29343   1.00
H3       0.03124    0.86011    0.25182   1.00
H3       0.10795    0.91669    0.33337   1.00
H3       0.03495    0.91333    0.30780   1.00
C4       0.47915    0.75006    0.25038   1.00
C4       0.52085    0.74994    0.24962   1.00
C3       0.45751    0.78448    0.25769   1.00
C3       0.54252    0.78073    0.23271   1.00
C3       0.45738    0.71575    0.24297   1.00
C3       0.54259    0.71922    0.26665   1.00
C2       0.39482    0.75016    0.24997   1.00
C2       0.60518    0.75016    0.24997   1.00
C3a      0.41599    0.78468    0.25753   1.00
C3       0.58382    0.78076    0.23290   1.00
C3       0.41611    0.71586    0.24278   1.00
C3a      0.58403    0.71914    0.26691   1.00
H1       0.47294    0.81134    0.26386   1.00
H1       0.52750    0.80484    0.21888   1.00
C5       0.39410    0.82187    0.26563   1.00
H1       0.59933    0.80486    0.21961   1.00
H1       0.40056    0.68905    0.23669   1.00
C5       0.60535    0.68553    0.28548   1.00
H1       0.52747    0.69549    0.28097   1.00
H1       0.47230    0.68868    0.23647   1.00
H2       0.59837    0.65848    0.26900   1.00
H2       0.63747    0.68972    0.28380   1.00
N1       0.59395    0.68132    0.32640   1.00
C6       0.55810    0.67243    0.33977   1.00
C6       0.61757    0.68527    0.35755   1.00
C6       0.55873    0.67085    0.37998   1.00
C6       0.59656    0.67902    0.39129   1.00
H3       0.53281    0.66733    0.32152   1.00
H3       0.64831    0.69241    0.35595   1.00
H3       0.53436    0.66440    0.39896   1.00
H3       0.60758    0.68025    0.42081   1.00
H2       0.36228    0.81597    0.26357   1.00
H2       0.40001    0.83264    0.29562   1.00
N1       0.40523    0.85198    0.23764   1.00
C6       0.38078    0.87124    0.21033   1.00
C6       0.44285    0.86843    0.23214   1.00
C6       0.40277    0.89781    0.18951   1.00
C6       0.44091    0.89608    0.20289   1.00
H3       0.34992    0.86571    0.20657   1.00
H3       0.46876    0.86011    0.24818   1.00
H3       0.39205    0.91669    0.16663   1.00
H3       0.46505    0.91333    0.19220   1.00
C4       0.24962    0.52085    0.25006   1.00
C4       0.25038    0.47915    0.24994   1.00
C3       0.24231    0.54249    0.28448   1.00
C3       0.26729    0.45748    0.28073   1.00
C3       0.25703    0.54262    0.21575   1.00
C3       0.23335    0.45741    0.21922   1.00
C2       0.25003    0.60518    0.25016   1.00
C2       0.25003    0.39482    0.25016   1.00
C3a      0.24247    0.58401    0.28468   1.00
C3       0.26710    0.41618    0.28076   1.00
C3       0.25722    0.58389    0.21586   1.00
C3a      0.23309    0.41597    0.21914   1.00
H1       0.23614    0.52706    0.31134   1.00
H1       0.28112    0.47250    0.30484   1.00
C5       0.23437    0.60590    0.32187   1.00
H1       0.28039    0.40067    0.30486   1.00
H1       0.26331    0.59944    0.18905   1.00
C5       0.21452    0.39465    0.18553   1.00
H1       0.21903    0.47253    0.19549   1.00
H1       0.26353    0.52770    0.18868   1.00
H2       0.23100    0.40163    0.15848   1.00
H2       0.21620    0.36253    0.18972   1.00
N1       0.17360    0.40605    0.18132   1.00
C6       0.16023    0.44190    0.17243   1.00
C6       0.14245    0.38243    0.18527   1.00
C6       0.12002    0.44127    0.17085   1.00
C6       0.10871    0.40344    0.17902   1.00
H3       0.17848    0.46719    0.16733   1.00
H3       0.14405    0.35169    0.19241   1.00
H3       0.10104    0.46564    0.16440   1.00
H3       0.07919    0.39242    0.18025   1.00
H2       0.23643    0.63772    0.31597   1.00
H2       0.20438    0.59999    0.33264   1.00
N1       0.26236    0.59477    0.35198   1.00
C6       0.28967    0.61922    0.37124   1.00
C6       0.26786    0.55715    0.36843   1.00
C6       0.31049    0.59723    0.39781   1.00
C6       0.29711    0.55909    0.39608   1.00
H3       0.29343    0.65008    0.36571   1.00
H3       0.25182    0.53124    0.36011   1.00
H3       0.33337    0.60795    0.41669   1.00
H3       0.30780    0.53495    0.41333   1.00
C4       0.25006    0.74962    0.02085   1.00
C4       0.24994    0.75038    -0.02085   1.00
C3       0.28448    0.74231    0.04249   1.00
C3       0.28073    0.76729    -0.04252   1.00
C3       0.21575    0.75703    0.04262   1.00
C3       0.21922    0.73335    -0.04259   1.00
C2       0.25016    0.75003    0.10518   1.00
C2       0.25016    0.75003    -0.10518   1.00
C3a      0.28468    0.74247    0.08401   1.00
C3       0.28076    0.76710    -0.08382   1.00
C3       0.21586    0.75722    0.08389   1.00
C3a      0.21914    0.73309    -0.08403   1.00
H1       0.31134    0.73614    0.02706   1.00
H1       0.30484    0.78112    -0.02750   1.00
C5       0.32187    0.73437    0.10590   1.00
H1       0.30486    0.78039    -0.09933   1.00
H1       0.18905    0.76331    0.09944   1.00
C5       0.18553    0.71452    -0.10535   1.00
H1       0.19549    0.71903    -0.02747   1.00
H1       0.18868    0.76353    0.02770   1.00
H2       0.15848    0.73100    -0.09837   1.00
H2       0.18972    0.71620    -0.13747   1.00
N1       0.18132    0.67360    -0.09395   1.00
C6       0.17243    0.66023    -0.05810   1.00
C6       0.18527    0.64245    -0.11757   1.00
C6       0.17085    0.62002    -0.05873   1.00
C6       0.17902    0.60871    -0.09656   1.00
H3       0.16733    0.67848    -0.03281   1.00
H3       0.19241    0.64405    -0.14831   1.00
H3       0.16440    0.60104    -0.03436   1.00
H3       0.18025    0.57919    -0.10758   1.00
H2       0.31597    0.73643    0.13772   1.00
H2       0.33264    0.70438    0.09999   1.00
N1       0.35198    0.76236    0.09477   1.00
C6       0.37124    0.78967    0.11922   1.00
C6       0.36843    0.76786    0.05715   1.00
C6       0.39781    0.81049    0.09723   1.00
C6       0.39608    0.79711    0.05909   1.00
H3       0.36571    0.79343    0.15008   1.00
H3       0.36011    0.75182    0.03124   1.00
H3       0.41669    0.83337    0.10795   1.00
H3       0.41333    0.80780    0.03495   1.00
C4       0.75006    0.25038    0.47915   1.00
C4       0.74994    0.24962    0.52085   1.00
C3       0.78448    0.25769    0.45751   1.00
C3       0.78073    0.23271    0.54252   1.00
C3       0.71575    0.24297    0.45738   1.00
C3       0.71922    0.26665    0.54259   1.00
C2       0.75016    0.24997    0.39482   1.00
C2       0.75016    0.24997    0.60518   1.00
C3a      0.78468    0.25753    0.41599   1.00
C3       0.78076    0.23290    0.58382   1.00
C3       0.71586    0.24278    0.41611   1.00
C3a      0.71914    0.26691    0.58403   1.00
H1       0.81134    0.26386    0.47294   1.00
H1       0.80484    0.21888    0.52750   1.00
C5       0.82187    0.26563    0.39410   1.00
H1       0.80486    0.21961    0.59933   1.00
H1       0.68905    0.23669    0.40056   1.00
C5       0.68553    0.28548    0.60535   1.00
H1       0.69549    0.28097    0.52747   1.00
H1       0.68868    0.23647    0.47230   1.00
H2       0.65848    0.26900    0.59837   1.00
H2       0.68972    0.28380    0.63747   1.00
N1       0.68132    0.32640    0.59395   1.00
C6       0.67243    0.33977    0.55810   1.00
C6       0.68527    0.35755    0.61757   1.00
C6       0.67085    0.37998    0.55873   1.00
C6       0.67902    0.39129    0.59656   1.00
H3       0.66733    0.32152    0.53281   1.00
H3       0.69241    0.35595    0.64831   1.00
H3       0.66440    0.39896    0.53436   1.00
H3       0.68025    0.42081    0.60758   1.00
H2       0.81597    0.26357    0.36228   1.00
H2       0.83264    0.29562    0.40001   1.00
N1       0.85198    0.23764    0.40523   1.00
C6       0.87124    0.21033    0.38078   1.00
C6       0.86843    0.23214    0.44285   1.00
C6       0.89781    0.18951    0.40277   1.00
C6       0.89608    0.20289    0.44091   1.00
H3       0.86571    0.20657    0.34992   1.00
H3       0.86011    0.24818    0.46876   1.00
H3       0.91669    0.16663    0.39205   1.00
H3       0.91333    0.19220    0.46505   1.00
C4       0.75038    0.47915    0.25006   1.00
C4       0.74962    0.52085    0.24994   1.00
C3       0.75769    0.45751    0.28448   1.00
C3       0.73271    0.54252    0.28073   1.00
C3       0.74297    0.45738    0.21575   1.00
C3       0.76665    0.54259    0.21922   1.00
C2       0.74997    0.39482    0.25016   1.00
C2       0.74997    0.60518    0.25016   1.00
C3a      0.75753    0.41599    0.28468   1.00
C3       0.73290    0.58382    0.28076   1.00
C3       0.74278    0.41611    0.21586   1.00
C3a      0.76691    0.58403    0.21914   1.00
H1       0.76386    0.47294    0.31134   1.00
H1       0.71888    0.52750    0.30484   1.00
C5       0.76563    0.39410    0.32187   1.00
H1       0.71961    0.59933    0.30486   1.00
H1       0.73669    0.40056    0.18905   1.00
C5       0.78548    0.60535    0.18553   1.00
H1       0.78097    0.52747    0.19549   1.00
H1       0.73647    0.47230    0.18868   1.00
H2       0.76900    0.59837    0.15848   1.00
H2       0.78380    0.63747    0.18972   1.00
N1       0.82640    0.59395    0.18132   1.00
C6       0.83977    0.55810    0.17243   1.00
C6       0.85755    0.61757    0.18527   1.00
C6       0.87998    0.55873    0.17085   1.00
C6       0.89129    0.59656    0.17902   1.00
H3       0.82152    0.53281    0.16733   1.00
H3       0.85595    0.64831    0.19241   1.00
H3       0.89896    0.53436    0.16440   1.00
H3       0.92081    0.60758    0.18025   1.00
H2       0.76357    0.36228    0.31597   1.00
H2       0.79562    0.40001    0.33264   1.00
N1       0.73764    0.40523    0.35198   1.00
C6       0.71033    0.38078    0.37124   1.00
C6       0.73214    0.44285    0.36843   1.00
C6       0.68951    0.40277    0.39781   1.00
C6       0.70289    0.44091    0.39608   1.00
H3       0.70657    0.34992    0.36571   1.00
H3       0.74818    0.46876    0.36011   1.00
H3       0.66663    0.39205    0.41669   1.00
H3       0.69220    0.46505    0.41333   1.00
C4       0.52085    0.25006    0.24962   1.00
C4       0.47915    0.24994    0.25038   1.00
C3       0.54249    0.28448    0.24231   1.00
C3       0.45748    0.28073    0.26729   1.00
C3       0.54262    0.21575    0.25703   1.00
C3       0.45741    0.21922    0.23335   1.00
C2       0.60518    0.25016    0.25003   1.00
C2       0.39482    0.25016    0.25003   1.00
C3a      0.58401    0.28468    0.24247   1.00
C3       0.41618    0.28076    0.26710   1.00
C3       0.58389    0.21586    0.25722   1.00
C3a      0.41597    0.21914    0.23309   1.00
H1       0.52706    0.31134    0.23614   1.00
H1       0.47250    0.30484    0.28112   1.00
C5       0.60590    0.32187    0.23437   1.00
H1       0.40067    0.30486    0.28039   1.00
H1       0.59944    0.18905    0.26331   1.00
C5       0.39465    0.18553    0.21452   1.00
H1       0.47253    0.19549    0.21903   1.00
H1       0.52770    0.18868    0.26353   1.00
H2       0.40163    0.15848    0.23100   1.00
H2       0.36253    0.18972    0.21620   1.00
N1       0.40605    0.18132    0.17360   1.00
C6       0.44190    0.17243    0.16023   1.00
C6       0.38243    0.18527    0.14245   1.00
C6       0.44127    0.17085    0.12002   1.00
C6       0.40344    0.17902    0.10871   1.00
H3       0.46719    0.16733    0.17848   1.00
H3       0.35169    0.19241    0.14405   1.00
H3       0.46564    0.16440    0.10104   1.00
H3       0.39242    0.18025    0.07919   1.00
H2       0.63772    0.31597    0.23643   1.00
H2       0.59999    0.33264    0.20438   1.00
N1       0.59477    0.35198    0.26236   1.00
C6       0.61922    0.37124    0.28967   1.00
C6       0.55715    0.36843    0.26786   1.00
C6       0.59723    0.39781    0.31049   1.00
C6       0.55909    0.39608    0.29711   1.00
H3       0.65008    0.36571    0.29343   1.00
H3       0.53124    0.36011    0.25182   1.00
H3       0.60795    0.41669    0.33337   1.00
H3       0.53495    0.41333    0.30780   1.00
C4       0.97915    0.25006    0.25038   1.00
C4       1.02085    0.24994    0.24962   1.00
C3       0.95751    0.28448    0.25769   1.00
C3       1.04252    0.28073    0.23271   1.00
C3       0.95738    0.21575    0.24297   1.00
C3       1.04259    0.21922    0.26665   1.00
C2       0.89482    0.25016    0.24997   1.00
C2       1.10518    0.25016    0.24997   1.00
C3a      0.91599    0.28468    0.25753   1.00
C3       1.08382    0.28076    0.23290   1.00
C3       0.91611    0.21586    0.24278   1.00
C3a      1.08403    0.21914    0.26691   1.00
H1       0.97294    0.31134    0.26386   1.00
H1       1.02750    0.30484    0.21888   1.00
C5       0.89410    0.32187    0.26563   1.00
H1       1.09933    0.30486    0.21961   1.00
H1       0.90056    0.18905    0.23669   1.00
C5       1.10535    0.18553    0.28548   1.00
H1       1.02747    0.19549    0.28097   1.00
H1       0.97230    0.18868    0.23647   1.00
H2       1.09837    0.15848    0.26900   1.00
H2       1.13747    0.18972    0.28380   1.00
N1       1.09395    0.18132    0.32640   1.00
C6       1.05810    0.17243    0.33977   1.00
C6       1.11757    0.18527    0.35755   1.00
C6       1.05873    0.17085    0.37998   1.00
C6       1.09656    0.17902    0.39129   1.00
H3       1.03281    0.16733    0.32152   1.00
H3       1.14831    0.19241    0.35595   1.00
H3       1.03436    0.16440    0.39896   1.00
H3       1.10758    0.18025    0.42081   1.00
H2       0.86228    0.31597    0.26357   1.00
H2       0.90001    0.33264    0.29562   1.00
N1       0.90523    0.35198    0.23764   1.00
C6       0.88078    0.37124    0.21033   1.00
C6       0.94285    0.36843    0.23214   1.00
C6       0.90277    0.39781    0.18951   1.00
C6       0.94091    0.39608    0.20289   1.00
H3       0.84992    0.36571    0.20657   1.00
H3       0.96876    0.36011    0.24818   1.00
H3       0.89205    0.41669    0.16663   1.00
H3       0.96505    0.41333    0.19220   1.00
C4       0.74962    0.02085    0.25006   1.00
C4       0.75038    -0.02085   0.24994   1.00
C3       0.74231    0.04249    0.28448   1.00
C3       0.76729    -0.04252   0.28073   1.00
C3       0.75703    0.04262    0.21575   1.00
C3       0.73335    -0.04259   0.21922   1.00
C2       0.75003    0.10518    0.25016   1.00
C2       0.75003    -0.10518   0.25016   1.00
C3a      0.74247    0.08401    0.28468   1.00
C3       0.76710    -0.08382   0.28076   1.00
C3       0.75722    0.08389    0.21586   1.00
C3a      0.73309    -0.08403   0.21914   1.00
H1       0.73614    0.02706    0.31134   1.00
H1       0.78112    -0.02750   0.30484   1.00
C5       0.73437    0.10590    0.32187   1.00
H1       0.78039    -0.09933   0.30486   1.00
H1       0.76331    0.09944    0.18905   1.00
C5       0.71452    -0.10535   0.18553   1.00
H1       0.71903    -0.02747   0.19549   1.00
H1       0.76353    0.02770    0.18868   1.00
H2       0.73100    -0.09837   0.15848   1.00
H2       0.71620    -0.13747   0.18972   1.00
N1       0.67360    -0.09395   0.18132   1.00
C6       0.66023    -0.05810   0.17243   1.00
C6       0.64245    -0.11757   0.18527   1.00
C6       0.62002    -0.05873   0.17085   1.00
C6       0.60871    -0.09656   0.17902   1.00
H3       0.67848    -0.03281   0.16733   1.00
H3       0.64405    -0.14831   0.19241   1.00
H3       0.60104    -0.03436   0.16440   1.00
H3       0.57919    -0.10758   0.18025   1.00
H2       0.73643    0.13772    0.31597   1.00
H2       0.70438    0.09999    0.33264   1.00
N1       0.76236    0.09477    0.35198   1.00
C6       0.78967    0.11922    0.37124   1.00
C6       0.76786    0.05715    0.36843   1.00
C6       0.81049    0.09723    0.39781   1.00
C6       0.79711    0.05909    0.39608   1.00
H3       0.79343    0.15008    0.36571   1.00
H3       0.75182    0.03124    0.36011   1.00
H3       0.83337    0.10795    0.41669   1.00
H3       0.80780    0.03495    0.41333   1.00
C4       0.75006    0.24962    0.02085   1.00
C4       0.74994    0.25038    -0.02085   1.00
C3       0.78448    0.24231    0.04249   1.00
C3       0.78073    0.26729    -0.04252   1.00
C3       0.71575    0.25703    0.04262   1.00
C3       0.71922    0.23335    -0.04259   1.00
C2       0.75016    0.25003    0.10518   1.00
C2       0.75016    0.25003    -0.10518   1.00
C3a      0.78468    0.24247    0.08401   1.00
C3       0.78076    0.26710    -0.08382   1.00
C3       0.71586    0.25722    0.08389   1.00
C3a      0.71914    0.23309    -0.08403   1.00
H1       0.81134    0.23614    0.02706   1.00
H1       0.80484    0.28112    -0.02750   1.00
C5       0.82187    0.23437    0.10590   1.00
H1       0.80486    0.28039    -0.09933   1.00
H1       0.68905    0.26331    0.09944   1.00
C5       0.68553    0.21452    -0.10535   1.00
H1       0.69549    0.21903    -0.02747   1.00
H1       0.68868    0.26353    0.02770   1.00
H2       0.65848    0.23100    -0.09837   1.00
H2       0.68972    0.21620    -0.13747   1.00
N1       0.68132    0.17360    -0.09395   1.00
C6       0.67243    0.16023    -0.05810   1.00
C6       0.68527    0.14245    -0.11757   1.00
C6       0.67085    0.12002    -0.05873   1.00
C6       0.67902    0.10871    -0.09656   1.00
H3       0.66733    0.17848    -0.03281   1.00
H3       0.69241    0.14405    -0.14831   1.00
H3       0.66440    0.10104    -0.03436   1.00
H3       0.68025    0.07919    -0.10758   1.00
H2       0.81597    0.23643    0.13772   1.00
H2       0.83264    0.20438    0.09999   1.00
N1       0.85198    0.26236    0.09477   1.00
C6       0.87124    0.28967    0.11922   1.00
C6       0.86843    0.26786    0.05715   1.00
C6       0.89781    0.31049    0.09723   1.00
C6       0.89608    0.29711    0.05909   1.00
H3       0.86571    0.29343    0.15008   1.00
H3       0.86011    0.25182    0.03124   1.00
H3       0.91669    0.33337    0.10795   1.00
H3       0.91333    0.30780    0.03495   1.00
