data_IRMOF10_SG202_Ligand8_label_y.

_audit_creation_method             'generated by an auxiliary program of Tobunporous'

_symmetry_space_group_name_H-M     'P 1'
_symmetry_Int_Tables_number        1
_symmetry_cell_setting             triclinic

_cell_length_a                    34.2800
_cell_length_b                    34.2800
_cell_length_c                    34.2800
_cell_angle_alpha                 90.0000
_cell_angle_beta                  90.0000
_cell_angle_gamma                 90.0000

loop_
_atom_site_label
_atom_site_fract_x
_atom_site_fract_y
_atom_site_fract_z
_atom_site_occupancy
O1       0.75000    0.75000    0.75000   1.00
Zn1      0.71720    0.78280    0.78280   1.00
Zn1      0.78280    0.71720    0.78280   1.00
Zn1      0.78280    0.78280    0.71720   1.00
Zn1      0.71720    0.71720    0.71720   1.00
O2       0.72650    0.77350    0.83820   1.00
O2       0.72650    0.83820    0.77350   1.00
O2       0.66180    0.77350    0.77350   1.00
O2       0.77350    0.72650    0.83820   1.00
O2       0.83820    0.72650    0.77350   1.00
O2       0.77350    0.66180    0.77350   1.00
O2       0.77350    0.83820    0.72650   1.00
O2       0.83820    0.77350    0.72650   1.00
O2       0.77350    0.77350    0.66180   1.00
O2       0.66180    0.72650    0.72650   1.00
O2       0.72650    0.66180    0.72650   1.00
O2       0.72650    0.72650    0.66180   1.00
C1       0.75000    0.75000    0.85520   1.00
C1       0.75000    0.85520    0.75000   1.00
C1       0.64480    0.75000    0.75000   1.00
C1       0.85520    0.75000    0.75000   1.00
C1       0.75000    0.64480    0.75000   1.00
C1       0.75000    0.75000    0.64480   1.00
O1       0.25000    0.25000    0.75000   1.00
Zn1      0.21720    0.28280    0.78280   1.00
Zn1      0.28280    0.21720    0.78280   1.00
Zn1      0.28280    0.28280    0.71720   1.00
Zn1      0.21720    0.21720    0.71720   1.00
O2       0.22650    0.27350    0.83820   1.00
O2       0.22650    0.33820    0.77350   1.00
O2       0.16180    0.27350    0.77350   1.00
O2       0.27350    0.22650    0.83820   1.00
O2       0.33820    0.22650    0.77350   1.00
O2       0.27350    0.16180    0.77350   1.00
O2       0.27350    0.33820    0.72650   1.00
O2       0.33820    0.27350    0.72650   1.00
O2       0.27350    0.27350    0.66180   1.00
O2       0.16180    0.22650    0.72650   1.00
O2       0.22650    0.16180    0.72650   1.00
O2       0.22650    0.22650    0.66180   1.00
C1       0.25000    0.25000    0.85520   1.00
C1       0.25000    0.35520    0.75000   1.00
C1       0.14480    0.25000    0.75000   1.00
C1       0.35520    0.25000    0.75000   1.00
C1       0.25000    0.14480    0.75000   1.00
C1       0.25000    0.25000    0.64480   1.00
O1       0.25000    0.75000    0.25000   1.00
Zn1      0.21720    0.78280    0.28280   1.00
Zn1      0.28280    0.71720    0.28280   1.00
Zn1      0.28280    0.78280    0.21720   1.00
Zn1      0.21720    0.71720    0.21720   1.00
O2       0.22650    0.77350    0.33820   1.00
O2       0.22650    0.83820    0.27350   1.00
O2       0.16180    0.77350    0.27350   1.00
O2       0.27350    0.72650    0.33820   1.00
O2       0.33820    0.72650    0.27350   1.00
O2       0.27350    0.66180    0.27350   1.00
O2       0.27350    0.83820    0.22650   1.00
O2       0.33820    0.77350    0.22650   1.00
O2       0.27350    0.77350    0.16180   1.00
O2       0.16180    0.72650    0.22650   1.00
O2       0.22650    0.66180    0.22650   1.00
O2       0.22650    0.72650    0.16180   1.00
C1       0.25000    0.75000    0.35520   1.00
C1       0.25000    0.85520    0.25000   1.00
C1       0.14480    0.75000    0.25000   1.00
C1       0.35520    0.75000    0.25000   1.00
C1       0.25000    0.64480    0.25000   1.00
C1       0.25000    0.75000    0.14480   1.00
O1       0.75000    0.25000    0.25000   1.00
Zn1      0.71720    0.28280    0.28280   1.00
Zn1      0.78280    0.21720    0.28280   1.00
Zn1      0.78280    0.28280    0.21720   1.00
Zn1      0.71720    0.21720    0.21720   1.00
O2       0.72650    0.27350    0.33820   1.00
O2       0.72650    0.33820    0.27350   1.00
O2       0.66180    0.27350    0.27350   1.00
O2       0.77350    0.22650    0.33820   1.00
O2       0.83820    0.22650    0.27350   1.00
O2       0.77350    0.16180    0.27350   1.00
O2       0.77350    0.33820    0.22650   1.00
O2       0.83820    0.27350    0.22650   1.00
O2       0.77350    0.27350    0.16180   1.00
O2       0.66180    0.22650    0.22650   1.00
O2       0.72650    0.16180    0.22650   1.00
O2       0.72650    0.22650    0.16180   1.00
C1       0.75000    0.25000    0.35520   1.00
C1       0.75000    0.35520    0.25000   1.00
C1       0.64480    0.25000    0.25000   1.00
C1       0.85520    0.25000    0.25000   1.00
C1       0.75000    0.14480    0.25000   1.00
C1       0.75000    0.25000    0.14480   1.00
O1       0.25000    0.25000    0.25000   1.00
Zn1      0.28280    0.21720    0.21720   1.00
Zn1      0.21720    0.28280    0.21720   1.00
Zn1      0.21720    0.21720    0.28280   1.00
Zn1      0.28280    0.28280    0.28280   1.00
O2       0.27350    0.22650    0.16180   1.00
O2       0.27350    0.16180    0.22650   1.00
O2       0.33820    0.22650    0.22650   1.00
O2       0.22650    0.27350    0.16180   1.00
O2       0.16180    0.27350    0.22650   1.00
O2       0.22650    0.33820    0.22650   1.00
O2       0.22650    0.16180    0.27350   1.00
O2       0.16180    0.22650    0.27350   1.00
O2       0.22650    0.22650    0.33820   1.00
O2       0.33820    0.27350    0.27350   1.00
O2       0.27350    0.33820    0.27350   1.00
O2       0.27350    0.27350    0.33820   1.00
C1       0.25000    0.25000    0.14480   1.00
C1       0.25000    0.14480    0.25000   1.00
C1       0.35520    0.25000    0.25000   1.00
C1       0.14480    0.25000    0.25000   1.00
C1       0.25000    0.35520    0.25000   1.00
C1       0.25000    0.25000    0.35520   1.00
O1       0.75000    0.75000    0.25000   1.00
Zn1      0.78280    0.71720    0.21720   1.00
Zn1      0.71720    0.78280    0.21720   1.00
Zn1      0.71720    0.71720    0.28280   1.00
Zn1      0.78280    0.78280    0.28280   1.00
O2       0.77350    0.72650    0.16180   1.00
O2       0.77350    0.66180    0.22650   1.00
O2       0.83820    0.72650    0.22650   1.00
O2       0.72650    0.77350    0.16180   1.00
O2       0.66180    0.77350    0.22650   1.00
O2       0.72650    0.83820    0.22650   1.00
O2       0.72650    0.66180    0.27350   1.00
O2       0.66180    0.72650    0.27350   1.00
O2       0.72650    0.72650    0.33820   1.00
O2       0.83820    0.77350    0.27350   1.00
O2       0.77350    0.83820    0.27350   1.00
O2       0.77350    0.77350    0.33820   1.00
C1       0.75000    0.75000    0.14480   1.00
C1       0.75000    0.64480    0.25000   1.00
C1       0.85520    0.75000    0.25000   1.00
C1       0.64480    0.75000    0.25000   1.00
C1       0.75000    0.85520    0.25000   1.00
C1       0.75000    0.75000    0.35520   1.00
O1       0.75000    0.25000    0.75000   1.00
Zn1      0.78280    0.21720    0.71720   1.00
Zn1      0.71720    0.28280    0.71720   1.00
Zn1      0.71720    0.21720    0.78280   1.00
Zn1      0.78280    0.28280    0.78280   1.00
O2       0.77350    0.22650    0.66180   1.00
O2       0.77350    0.16180    0.72650   1.00
O2       0.83820    0.22650    0.72650   1.00
O2       0.72650    0.27350    0.66180   1.00
O2       0.66180    0.27350    0.72650   1.00
O2       0.72650    0.33820    0.72650   1.00
O2       0.72650    0.16180    0.77350   1.00
O2       0.66180    0.22650    0.77350   1.00
O2       0.72650    0.22650    0.83820   1.00
O2       0.83820    0.27350    0.77350   1.00
O2       0.77350    0.33820    0.77350   1.00
O2       0.77350    0.27350    0.83820   1.00
C1       0.75000    0.25000    0.64480   1.00
C1       0.75000    0.14480    0.75000   1.00
C1       0.85520    0.25000    0.75000   1.00
C1       0.64480    0.25000    0.75000   1.00
C1       0.75000    0.35520    0.75000   1.00
C1       0.75000    0.25000    0.85520   1.00
O1       0.25000    0.75000    0.75000   1.00
Zn1      0.28280    0.71720    0.71720   1.00
Zn1      0.21720    0.78280    0.71720   1.00
Zn1      0.21720    0.71720    0.78280   1.00
Zn1      0.28280    0.78280    0.78280   1.00
O2       0.27350    0.72650    0.66180   1.00
O2       0.27350    0.66180    0.72650   1.00
O2       0.33820    0.72650    0.72650   1.00
O2       0.22650    0.77350    0.66180   1.00
O2       0.16180    0.77350    0.72650   1.00
O2       0.22650    0.83820    0.72650   1.00
O2       0.22650    0.66180    0.77350   1.00
O2       0.16180    0.72650    0.77350   1.00
O2       0.22650    0.72650    0.83820   1.00
O2       0.33820    0.77350    0.77350   1.00
O2       0.27350    0.83820    0.77350   1.00
O2       0.27350    0.77350    0.83820   1.00
C1       0.25000    0.75000    0.64480   1.00
C1       0.25000    0.64480    0.75000   1.00
C1       0.35520    0.75000    0.75000   1.00
C1       0.14480    0.75000    0.75000   1.00
C1       0.25000    0.85520    0.75000   1.00
C1       0.25000    0.75000    0.85520   1.00
C4       0.74995    0.75009    0.97915   1.00
C4       0.75005    0.74991    1.02085   1.00
C3       0.71619    0.75846    0.95708   1.00
C3       0.76548    0.78155    1.04225   1.00
C3       0.78443    0.74173    0.95816   1.00
C3a      0.73413    0.71813    1.04263   1.00
C2       0.75135    0.74933    0.89483   1.00
C2       0.74885    0.75091    1.10517   1.00
C3       0.71694    0.75805    0.91566   1.00
C3       0.76485    0.78199    1.08359   1.00
C3       0.78506    0.74119    0.91680   1.00
C3       0.73367    0.71920    1.08415   1.00
H1       0.68915    0.76529    0.97192   1.00
H1       0.77785    0.80622    1.02685   1.00
H1       0.69048    0.76454    0.89968   1.00
H1       0.77688    0.80684    1.09895   1.00
H1       0.81194    0.73411    0.90179   1.00
H1       0.72167    0.69493    1.10043   1.00
C5       0.71814    0.68226    1.02239   1.00
H1       0.81080    0.73454    0.97401   1.00
H2       0.70352    0.66249    1.04354   1.00
H2       0.69546    0.69122    1.00103   1.00
N1       0.74944    0.66069    1.00292   1.00
C6       0.78125    0.64532    1.02012   1.00
C6       0.75148    0.65227    0.96460   1.00
C6       0.80410    0.62716    0.99243   1.00
C6       0.78517    0.63160    0.95711   1.00
H3       0.78769    0.64735    1.05099   1.00
H3       0.73005    0.66101    0.94309   1.00
H3       0.83148    0.61231    0.99741   1.00
H3       0.79486    0.62099    0.92903   1.00
C4       0.75009    0.97915    0.74995   1.00
C4       0.74991    1.02085    0.75005   1.00
C3       0.75846    0.95708    0.71619   1.00
C3       0.78155    1.04225    0.76548   1.00
C3       0.74173    0.95816    0.78443   1.00
C3a      0.71813    1.04263    0.73413   1.00
C2       0.74933    0.89483    0.75135   1.00
C2       0.75091    1.10517    0.74885   1.00
C3       0.75805    0.91566    0.71694   1.00
C3       0.78199    1.08359    0.76485   1.00
C3       0.74119    0.91680    0.78506   1.00
C3       0.71920    1.08415    0.73367   1.00
H1       0.76529    0.97192    0.68915   1.00
H1       0.80622    1.02685    0.77785   1.00
H1       0.76454    0.89968    0.69048   1.00
H1       0.80684    1.09895    0.77688   1.00
H1       0.73411    0.90179    0.81194   1.00
H1       0.69493    1.10043    0.72167   1.00
C5       0.68226    1.02239    0.71814   1.00
H1       0.73454    0.97401    0.81080   1.00
H2       0.66249    1.04354    0.70352   1.00
H2       0.69122    1.00103    0.69546   1.00
N1       0.66069    1.00292    0.74944   1.00
C6       0.64532    1.02012    0.78125   1.00
C6       0.65227    0.96460    0.75148   1.00
C6       0.62716    0.99243    0.80410   1.00
C6       0.63160    0.95711    0.78517   1.00
H3       0.64735    1.05099    0.78769   1.00
H3       0.66101    0.94309    0.73005   1.00
H3       0.61231    0.99741    0.83148   1.00
H3       0.62099    0.92903    0.79486   1.00
C4       0.52085    0.74995    0.74991   1.00
C4       0.47915    0.75005    0.75009   1.00
C3       0.54292    0.71619    0.74154   1.00
C3       0.45775    0.76548    0.71845   1.00
C3       0.54184    0.78443    0.75827   1.00
C3a      0.45737    0.73413    0.78187   1.00
C2       0.60517    0.75135    0.75067   1.00
C2       0.39483    0.74885    0.74909   1.00
C3       0.58434    0.71694    0.74195   1.00
C3       0.41641    0.76485    0.71801   1.00
C3       0.58320    0.78506    0.75881   1.00
C3       0.41585    0.73367    0.78080   1.00
H1       0.52808    0.68915    0.73471   1.00
H1       0.47315    0.77785    0.69378   1.00
H1       0.60032    0.69048    0.73546   1.00
H1       0.40105    0.77688    0.69316   1.00
H1       0.59821    0.81194    0.76589   1.00
H1       0.39957    0.72167    0.80507   1.00
C5       0.47761    0.71814    0.81774   1.00
H1       0.52599    0.81080    0.76546   1.00
H2       0.45646    0.70352    0.83751   1.00
H2       0.49897    0.69546    0.80878   1.00
N1       0.49708    0.74944    0.83931   1.00
C6       0.47988    0.78125    0.85468   1.00
C6       0.53540    0.75148    0.84773   1.00
C6       0.50757    0.80410    0.87284   1.00
C6       0.54289    0.78517    0.86840   1.00
H3       0.44901    0.78769    0.85265   1.00
H3       0.55691    0.73005    0.83899   1.00
H3       0.50259    0.83148    0.88769   1.00
H3       0.57097    0.79486    0.87901   1.00
C4       0.97915    0.74995    0.75009   1.00
C4       1.02085    0.75005    0.74991   1.00
C3       0.95708    0.71619    0.75846   1.00
C3       1.04225    0.76548    0.78155   1.00
C3       0.95816    0.78443    0.74173   1.00
C3a      1.04263    0.73413    0.71813   1.00
C2       0.89483    0.75135    0.74933   1.00
C2       1.10517    0.74885    0.75091   1.00
C3       0.91566    0.71694    0.75805   1.00
C3       1.08359    0.76485    0.78199   1.00
C3       0.91680    0.78506    0.74119   1.00
C3       1.08415    0.73367    0.71920   1.00
H1       0.97192    0.68915    0.76529   1.00
H1       1.02685    0.77785    0.80622   1.00
H1       0.89968    0.69048    0.76454   1.00
H1       1.09895    0.77688    0.80684   1.00
H1       0.90179    0.81194    0.73411   1.00
H1       1.10043    0.72167    0.69493   1.00
C5       1.02239    0.71814    0.68226   1.00
H1       0.97401    0.81080    0.73454   1.00
H2       1.04354    0.70352    0.66249   1.00
H2       1.00103    0.69546    0.69122   1.00
N1       1.00292    0.74944    0.66069   1.00
C6       1.02012    0.78125    0.64532   1.00
C6       0.96460    0.75148    0.65227   1.00
C6       0.99243    0.80410    0.62716   1.00
C6       0.95711    0.78517    0.63160   1.00
H3       1.05099    0.78769    0.64735   1.00
H3       0.94309    0.73005    0.66101   1.00
H3       0.99741    0.83148    0.61231   1.00
H3       0.92903    0.79486    0.62099   1.00
C4       0.74991    0.52085    0.74995   1.00
C4       0.75009    0.47915    0.75005   1.00
C3       0.74154    0.54292    0.71619   1.00
C3       0.71845    0.45775    0.76548   1.00
C3       0.75827    0.54184    0.78443   1.00
C3a      0.78187    0.45737    0.73413   1.00
C2       0.75067    0.60517    0.75135   1.00
C2       0.74909    0.39483    0.74885   1.00
C3       0.74195    0.58434    0.71694   1.00
C3       0.71801    0.41641    0.76485   1.00
C3       0.75881    0.58320    0.78506   1.00
C3       0.78080    0.41585    0.73367   1.00
H1       0.73471    0.52808    0.68915   1.00
H1       0.69378    0.47315    0.77785   1.00
H1       0.73546    0.60032    0.69048   1.00
H1       0.69316    0.40105    0.77688   1.00
H1       0.76589    0.59821    0.81194   1.00
H1       0.80507    0.39957    0.72167   1.00
C5       0.81774    0.47761    0.71814   1.00
H1       0.76546    0.52599    0.81080   1.00
H2       0.83751    0.45646    0.70352   1.00
H2       0.80878    0.49897    0.69546   1.00
N1       0.83931    0.49708    0.74944   1.00
C6       0.85468    0.47988    0.78125   1.00
C6       0.84773    0.53540    0.75148   1.00
C6       0.87284    0.50757    0.80410   1.00
C6       0.86840    0.54289    0.78517   1.00
H3       0.85265    0.44901    0.78769   1.00
H3       0.83899    0.55691    0.73005   1.00
H3       0.88769    0.50259    0.83148   1.00
H3       0.87901    0.57097    0.79486   1.00
C4       0.74995    0.74991    0.52085   1.00
C4       0.75005    0.75009    0.47915   1.00
C3       0.71619    0.74154    0.54292   1.00
C3       0.76548    0.71845    0.45775   1.00
C3       0.78443    0.75827    0.54184   1.00
C3a      0.73413    0.78187    0.45737   1.00
C2       0.75135    0.75067    0.60517   1.00
C2       0.74885    0.74909    0.39483   1.00
C3       0.71694    0.74195    0.58434   1.00
C3       0.76485    0.71801    0.41641   1.00
C3       0.78506    0.75881    0.58320   1.00
C3       0.73367    0.78080    0.41585   1.00
H1       0.68915    0.73471    0.52808   1.00
H1       0.77785    0.69378    0.47315   1.00
H1       0.69048    0.73546    0.60032   1.00
H1       0.77688    0.69316    0.40105   1.00
H1       0.81194    0.76589    0.59821   1.00
H1       0.72167    0.80507    0.39957   1.00
C5       0.71814    0.81774    0.47761   1.00
H1       0.81080    0.76546    0.52599   1.00
H2       0.70352    0.83751    0.45646   1.00
H2       0.69546    0.80878    0.49897   1.00
N1       0.74944    0.83931    0.49708   1.00
C6       0.78125    0.85468    0.47988   1.00
C6       0.75148    0.84773    0.53540   1.00
C6       0.80410    0.87284    0.50757   1.00
C6       0.78517    0.86840    0.54289   1.00
H3       0.78769    0.85265    0.44901   1.00
H3       0.73005    0.83899    0.55691   1.00
H3       0.83148    0.88769    0.50259   1.00
H3       0.79486    0.87901    0.57097   1.00
C4       0.24995    0.25009    0.97915   1.00
C4       0.25005    0.24991    1.02085   1.00
C3       0.21619    0.25846    0.95708   1.00
C3       0.26548    0.28155    1.04225   1.00
C3       0.28443    0.24173    0.95816   1.00
C3a      0.23413    0.21813    1.04263   1.00
C2       0.25135    0.24933    0.89483   1.00
C2       0.24885    0.25091    1.10517   1.00
C3       0.21694    0.25805    0.91566   1.00
C3       0.26485    0.28199    1.08359   1.00
C3       0.28506    0.24119    0.91680   1.00
C3       0.23367    0.21920    1.08415   1.00
H1       0.18915    0.26529    0.97192   1.00
H1       0.27785    0.30622    1.02685   1.00
H1       0.19048    0.26454    0.89968   1.00
H1       0.27688    0.30684    1.09895   1.00
H1       0.31194    0.23411    0.90179   1.00
H1       0.22167    0.19493    1.10043   1.00
C5       0.21814    0.18226    1.02239   1.00
H1       0.31080    0.23454    0.97401   1.00
H2       0.20352    0.16249    1.04354   1.00
H2       0.19546    0.19122    1.00103   1.00
N1       0.24944    0.16069    1.00292   1.00
C6       0.28125    0.14532    1.02012   1.00
C6       0.25148    0.15227    0.96460   1.00
C6       0.30410    0.12716    0.99243   1.00
C6       0.28517    0.13160    0.95711   1.00
H3       0.28769    0.14735    1.05099   1.00
H3       0.23005    0.16101    0.94309   1.00
H3       0.33148    0.11231    0.99741   1.00
H3       0.29486    0.12099    0.92903   1.00
C4       0.25009    0.47915    0.74995   1.00
C4       0.24991    0.52085    0.75005   1.00
C3       0.25846    0.45708    0.71619   1.00
C3       0.28155    0.54225    0.76548   1.00
C3       0.24173    0.45816    0.78443   1.00
C3a      0.21813    0.54263    0.73413   1.00
C2       0.24933    0.39483    0.75135   1.00
C2       0.25091    0.60517    0.74885   1.00
C3       0.25805    0.41566    0.71694   1.00
C3       0.28199    0.58359    0.76485   1.00
C3       0.24119    0.41680    0.78506   1.00
C3       0.21920    0.58415    0.73367   1.00
H1       0.26529    0.47192    0.68915   1.00
H1       0.30622    0.52685    0.77785   1.00
H1       0.26454    0.39968    0.69048   1.00
H1       0.30684    0.59895    0.77688   1.00
H1       0.23411    0.40179    0.81194   1.00
H1       0.19493    0.60043    0.72167   1.00
C5       0.18226    0.52239    0.71814   1.00
H1       0.23454    0.47401    0.81080   1.00
H2       0.16249    0.54354    0.70352   1.00
H2       0.19122    0.50103    0.69546   1.00
N1       0.16069    0.50292    0.74944   1.00
C6       0.14532    0.52012    0.78125   1.00
C6       0.15227    0.46460    0.75148   1.00
C6       0.12716    0.49243    0.80410   1.00
C6       0.13160    0.45711    0.78517   1.00
H3       0.14735    0.55099    0.78769   1.00
H3       0.16101    0.44309    0.73005   1.00
H3       0.11231    0.49741    0.83148   1.00
H3       0.12099    0.42903    0.79486   1.00
C4       0.02085    0.24995    0.74991   1.00
C4       -0.02085   0.25005    0.75009   1.00
C3       0.04292    0.21619    0.74154   1.00
C3       -0.04225   0.26548    0.71845   1.00
C3       0.04184    0.28443    0.75827   1.00
C3a      -0.04263   0.23413    0.78187   1.00
C2       0.10517    0.25135    0.75067   1.00
C2       -0.10517   0.24885    0.74909   1.00
C3       0.08434    0.21694    0.74195   1.00
C3       -0.08359   0.26485    0.71801   1.00
C3       0.08320    0.28506    0.75881   1.00
C3       -0.08415   0.23367    0.78080   1.00
H1       0.02808    0.18915    0.73471   1.00
H1       -0.02685   0.27785    0.69378   1.00
H1       0.10032    0.19048    0.73546   1.00
H1       -0.09895   0.27688    0.69316   1.00
H1       0.09821    0.31194    0.76589   1.00
H1       -0.10043   0.22167    0.80507   1.00
C5       -0.02239   0.21814    0.81774   1.00
H1       0.02599    0.31080    0.76546   1.00
H2       -0.04354   0.20352    0.83751   1.00
H2       -0.00103   0.19546    0.80878   1.00
N1       -0.00292   0.24944    0.83931   1.00
C6       -0.02012   0.28125    0.85468   1.00
C6       0.03540    0.25148    0.84773   1.00
C6       0.00757    0.30410    0.87284   1.00
C6       0.04289    0.28517    0.86840   1.00
H3       -0.05099   0.28769    0.85265   1.00
H3       0.05691    0.23005    0.83899   1.00
H3       0.00259    0.33148    0.88769   1.00
H3       0.07097    0.29486    0.87901   1.00
C4       0.47915    0.24995    0.75009   1.00
C4       0.52085    0.25005    0.74991   1.00
C3       0.45708    0.21619    0.75846   1.00
C3       0.54225    0.26548    0.78155   1.00
C3       0.45816    0.28443    0.74173   1.00
C3a      0.54263    0.23413    0.71813   1.00
C2       0.39483    0.25135    0.74933   1.00
C2       0.60517    0.24885    0.75091   1.00
C3       0.41566    0.21694    0.75805   1.00
C3       0.58359    0.26485    0.78199   1.00
C3       0.41680    0.28506    0.74119   1.00
C3       0.58415    0.23367    0.71920   1.00
H1       0.47192    0.18915    0.76529   1.00
H1       0.52685    0.27785    0.80622   1.00
H1       0.39968    0.19048    0.76454   1.00
H1       0.59895    0.27688    0.80684   1.00
H1       0.40179    0.31194    0.73411   1.00
H1       0.60043    0.22167    0.69493   1.00
C5       0.52239    0.21814    0.68226   1.00
H1       0.47401    0.31080    0.73454   1.00
H2       0.54354    0.20352    0.66249   1.00
H2       0.50103    0.19546    0.69122   1.00
N1       0.50292    0.24944    0.66069   1.00
C6       0.52012    0.28125    0.64532   1.00
C6       0.46460    0.25148    0.65227   1.00
C6       0.49243    0.30410    0.62716   1.00
C6       0.45711    0.28517    0.63160   1.00
H3       0.55099    0.28769    0.64735   1.00
H3       0.44309    0.23005    0.66101   1.00
H3       0.49741    0.33148    0.61231   1.00
H3       0.42903    0.29486    0.62099   1.00
C4       0.24991    0.02085    0.74995   1.00
C4       0.25009    -0.02085   0.75005   1.00
C3       0.24154    0.04292    0.71619   1.00
C3       0.21845    -0.04225   0.76548   1.00
C3       0.25827    0.04184    0.78443   1.00
C3a      0.28187    -0.04263   0.73413   1.00
C2       0.25067    0.10517    0.75135   1.00
C2       0.24909    -0.10517   0.74885   1.00
C3       0.24195    0.08434    0.71694   1.00
C3       0.21801    -0.08359   0.76485   1.00
C3       0.25881    0.08320    0.78506   1.00
C3       0.28080    -0.08415   0.73367   1.00
H1       0.23471    0.02808    0.68915   1.00
H1       0.19378    -0.02685   0.77785   1.00
H1       0.23546    0.10032    0.69048   1.00
H1       0.19316    -0.09895   0.77688   1.00
H1       0.26589    0.09821    0.81194   1.00
H1       0.30507    -0.10043   0.72167   1.00
C5       0.31774    -0.02239   0.71814   1.00
H1       0.26546    0.02599    0.81080   1.00
H2       0.33751    -0.04354   0.70352   1.00
H2       0.30878    -0.00103   0.69546   1.00
N1       0.33931    -0.00292   0.74944   1.00
C6       0.35468    -0.02012   0.78125   1.00
C6       0.34773    0.03540    0.75148   1.00
C6       0.37284    0.00757    0.80410   1.00
C6       0.36840    0.04289    0.78517   1.00
H3       0.35265    -0.05099   0.78769   1.00
H3       0.33899    0.05691    0.73005   1.00
H3       0.38769    0.00259    0.83148   1.00
H3       0.37901    0.07097    0.79486   1.00
C4       0.24995    0.24991    0.52085   1.00
C4       0.25005    0.25009    0.47915   1.00
C3       0.21619    0.24154    0.54292   1.00
C3       0.26548    0.21845    0.45775   1.00
C3       0.28443    0.25827    0.54184   1.00
C3a      0.23413    0.28187    0.45737   1.00
C2       0.25135    0.25067    0.60517   1.00
C2       0.24885    0.24909    0.39483   1.00
C3       0.21694    0.24195    0.58434   1.00
C3       0.26485    0.21801    0.41641   1.00
C3       0.28506    0.25881    0.58320   1.00
C3       0.23367    0.28080    0.41585   1.00
H1       0.18915    0.23471    0.52808   1.00
H1       0.27785    0.19378    0.47315   1.00
H1       0.19048    0.23546    0.60032   1.00
H1       0.27688    0.19316    0.40105   1.00
H1       0.31194    0.26589    0.59821   1.00
H1       0.22167    0.30507    0.39957   1.00
C5       0.21814    0.31774    0.47761   1.00
H1       0.31080    0.26546    0.52599   1.00
H2       0.20352    0.33751    0.45646   1.00
H2       0.19546    0.30878    0.49897   1.00
N1       0.24944    0.33931    0.49708   1.00
C6       0.28125    0.35468    0.47988   1.00
C6       0.25148    0.34773    0.53540   1.00
C6       0.30410    0.37284    0.50757   1.00
C6       0.28517    0.36840    0.54289   1.00
H3       0.28769    0.35265    0.44901   1.00
H3       0.23005    0.33899    0.55691   1.00
H3       0.33148    0.38769    0.50259   1.00
H3       0.29486    0.37901    0.57097   1.00
C4       0.24995    0.75009    0.47915   1.00
C4       0.25005    0.74991    0.52085   1.00
C3       0.21619    0.75846    0.45708   1.00
C3       0.26548    0.78155    0.54225   1.00
C3       0.28443    0.74173    0.45816   1.00
C3a      0.23413    0.71813    0.54263   1.00
C2       0.25135    0.74933    0.39483   1.00
C2       0.24885    0.75091    0.60517   1.00
C3       0.21694    0.75805    0.41566   1.00
C3       0.26485    0.78199    0.58359   1.00
C3       0.28506    0.74119    0.41680   1.00
C3       0.23367    0.71920    0.58415   1.00
H1       0.18915    0.76529    0.47192   1.00
H1       0.27785    0.80622    0.52685   1.00
H1       0.19048    0.76454    0.39968   1.00
H1       0.27688    0.80684    0.59895   1.00
H1       0.31194    0.73411    0.40179   1.00
H1       0.22167    0.69493    0.60043   1.00
C5       0.21814    0.68226    0.52239   1.00
H1       0.31080    0.73454    0.47401   1.00
H2       0.20352    0.66249    0.54354   1.00
H2       0.19546    0.69122    0.50103   1.00
N1       0.24944    0.66069    0.50292   1.00
C6       0.28125    0.64532    0.52012   1.00
C6       0.25148    0.65227    0.46460   1.00
C6       0.30410    0.62716    0.49243   1.00
C6       0.28517    0.63160    0.45711   1.00
H3       0.28769    0.64735    0.55099   1.00
H3       0.23005    0.66101    0.44309   1.00
H3       0.33148    0.61231    0.49741   1.00
H3       0.29486    0.62099    0.42903   1.00
C4       0.25009    0.97915    0.24995   1.00
C4       0.24991    1.02085    0.25005   1.00
C3       0.25846    0.95708    0.21619   1.00
C3       0.28155    1.04225    0.26548   1.00
C3       0.24173    0.95816    0.28443   1.00
C3a      0.21813    1.04263    0.23413   1.00
C2       0.24933    0.89483    0.25135   1.00
C2       0.25091    1.10517    0.24885   1.00
C3       0.25805    0.91566    0.21694   1.00
C3       0.28199    1.08359    0.26485   1.00
C3       0.24119    0.91680    0.28506   1.00
C3       0.21920    1.08415    0.23367   1.00
H1       0.26529    0.97192    0.18915   1.00
H1       0.30622    1.02685    0.27785   1.00
H1       0.26454    0.89968    0.19048   1.00
H1       0.30684    1.09895    0.27688   1.00
H1       0.23411    0.90179    0.31194   1.00
H1       0.19493    1.10043    0.22167   1.00
C5       0.18226    1.02239    0.21814   1.00
H1       0.23454    0.97401    0.31080   1.00
H2       0.16249    1.04354    0.20352   1.00
H2       0.19122    1.00103    0.19546   1.00
N1       0.16069    1.00292    0.24944   1.00
C6       0.14532    1.02012    0.28125   1.00
C6       0.15227    0.96460    0.25148   1.00
C6       0.12716    0.99243    0.30410   1.00
C6       0.13160    0.95711    0.28517   1.00
H3       0.14735    1.05099    0.28769   1.00
H3       0.16101    0.94309    0.23005   1.00
H3       0.11231    0.99741    0.33148   1.00
H3       0.12099    0.92903    0.29486   1.00
C4       0.02085    0.74995    0.24991   1.00
C4       -0.02085   0.75005    0.25009   1.00
C3       0.04292    0.71619    0.24154   1.00
C3       -0.04225   0.76548    0.21845   1.00
C3       0.04184    0.78443    0.25827   1.00
C3a      -0.04263   0.73413    0.28187   1.00
C2       0.10517    0.75135    0.25067   1.00
C2       -0.10517   0.74885    0.24909   1.00
C3       0.08434    0.71694    0.24195   1.00
C3       -0.08359   0.76485    0.21801   1.00
C3       0.08320    0.78506    0.25881   1.00
C3       -0.08415   0.73367    0.28080   1.00
H1       0.02808    0.68915    0.23471   1.00
H1       -0.02685   0.77785    0.19378   1.00
H1       0.10032    0.69048    0.23546   1.00
H1       -0.09895   0.77688    0.19316   1.00
H1       0.09821    0.81194    0.26589   1.00
H1       -0.10043   0.72167    0.30507   1.00
C5       -0.02239   0.71814    0.31774   1.00
H1       0.02599    0.81080    0.26546   1.00
H2       -0.04354   0.70352    0.33751   1.00
H2       -0.00103   0.69546    0.30878   1.00
N1       -0.00292   0.74944    0.33931   1.00
C6       -0.02012   0.78125    0.35468   1.00
C6       0.03540    0.75148    0.34773   1.00
C6       0.00757    0.80410    0.37284   1.00
C6       0.04289    0.78517    0.36840   1.00
H3       -0.05099   0.78769    0.35265   1.00
H3       0.05691    0.73005    0.33899   1.00
H3       0.00259    0.83148    0.38769   1.00
H3       0.07097    0.79486    0.37901   1.00
C4       0.47915    0.74995    0.25009   1.00
C4       0.52085    0.75005    0.24991   1.00
C3       0.45708    0.71619    0.25846   1.00
C3       0.54225    0.76548    0.28155   1.00
C3       0.45816    0.78443    0.24173   1.00
C3a      0.54263    0.73413    0.21813   1.00
C2       0.39483    0.75135    0.24933   1.00
C2       0.60517    0.74885    0.25091   1.00
C3       0.41566    0.71694    0.25805   1.00
C3       0.58359    0.76485    0.28199   1.00
C3       0.41680    0.78506    0.24119   1.00
C3       0.58415    0.73367    0.21920   1.00
H1       0.47192    0.68915    0.26529   1.00
H1       0.52685    0.77785    0.30622   1.00
H1       0.39968    0.69048    0.26454   1.00
H1       0.59895    0.77688    0.30684   1.00
H1       0.40179    0.81194    0.23411   1.00
H1       0.60043    0.72167    0.19493   1.00
C5       0.52239    0.71814    0.18226   1.00
H1       0.47401    0.81080    0.23454   1.00
H2       0.54354    0.70352    0.16249   1.00
H2       0.50103    0.69546    0.19122   1.00
N1       0.50292    0.74944    0.16069   1.00
C6       0.52012    0.78125    0.14532   1.00
C6       0.46460    0.75148    0.15227   1.00
C6       0.49243    0.80410    0.12716   1.00
C6       0.45711    0.78517    0.13160   1.00
H3       0.55099    0.78769    0.14735   1.00
H3       0.44309    0.73005    0.16101   1.00
H3       0.49741    0.83148    0.11231   1.00
H3       0.42903    0.79486    0.12099   1.00
C4       0.24991    0.52085    0.24995   1.00
C4       0.25009    0.47915    0.25005   1.00
C3       0.24154    0.54292    0.21619   1.00
C3       0.21845    0.45775    0.26548   1.00
C3       0.25827    0.54184    0.28443   1.00
C3a      0.28187    0.45737    0.23413   1.00
C2       0.25067    0.60517    0.25135   1.00
C2       0.24909    0.39483    0.24885   1.00
C3       0.24195    0.58434    0.21694   1.00
C3       0.21801    0.41641    0.26485   1.00
C3       0.25881    0.58320    0.28506   1.00
C3       0.28080    0.41585    0.23367   1.00
H1       0.23471    0.52808    0.18915   1.00
H1       0.19378    0.47315    0.27785   1.00
H1       0.23546    0.60032    0.19048   1.00
H1       0.19316    0.40105    0.27688   1.00
H1       0.26589    0.59821    0.31194   1.00
H1       0.30507    0.39957    0.22167   1.00
C5       0.31774    0.47761    0.21814   1.00
H1       0.26546    0.52599    0.31080   1.00
H2       0.33751    0.45646    0.20352   1.00
H2       0.30878    0.49897    0.19546   1.00
N1       0.33931    0.49708    0.24944   1.00
C6       0.35468    0.47988    0.28125   1.00
C6       0.34773    0.53540    0.25148   1.00
C6       0.37284    0.50757    0.30410   1.00
C6       0.36840    0.54289    0.28517   1.00
H3       0.35265    0.44901    0.28769   1.00
H3       0.33899    0.55691    0.23005   1.00
H3       0.38769    0.50259    0.33148   1.00
H3       0.37901    0.57097    0.29486   1.00
C4       0.24995    0.74991    0.02085   1.00
C4       0.25005    0.75009    -0.02085   1.00
C3       0.21619    0.74154    0.04292   1.00
C3       0.26548    0.71845    -0.04225   1.00
C3       0.28443    0.75827    0.04184   1.00
C3a      0.23413    0.78187    -0.04263   1.00
C2       0.25135    0.75067    0.10517   1.00
C2       0.24885    0.74909    -0.10517   1.00
C3       0.21694    0.74195    0.08434   1.00
C3       0.26485    0.71801    -0.08359   1.00
C3       0.28506    0.75881    0.08320   1.00
C3       0.23367    0.78080    -0.08415   1.00
H1       0.18915    0.73471    0.02808   1.00
H1       0.27785    0.69378    -0.02685   1.00
H1       0.19048    0.73546    0.10032   1.00
H1       0.27688    0.69316    -0.09895   1.00
H1       0.31194    0.76589    0.09821   1.00
H1       0.22167    0.80507    -0.10043   1.00
C5       0.21814    0.81774    -0.02239   1.00
H1       0.31080    0.76546    0.02599   1.00
H2       0.20352    0.83751    -0.04354   1.00
H2       0.19546    0.80878    -0.00103   1.00
N1       0.24944    0.83931    -0.00292   1.00
C6       0.28125    0.85468    -0.02012   1.00
C6       0.25148    0.84773    0.03540   1.00
C6       0.30410    0.87284    0.00757   1.00
C6       0.28517    0.86840    0.04289   1.00
H3       0.28769    0.85265    -0.05099   1.00
H3       0.23005    0.83899    0.05691   1.00
H3       0.33148    0.88769    0.00259   1.00
H3       0.29486    0.87901    0.07097   1.00
C4       0.74995    0.25009    0.47915   1.00
C4       0.75005    0.24991    0.52085   1.00
C3       0.71619    0.25846    0.45708   1.00
C3       0.76548    0.28155    0.54225   1.00
C3       0.78443    0.24173    0.45816   1.00
C3a      0.73413    0.21813    0.54263   1.00
C2       0.75135    0.24933    0.39483   1.00
C2       0.74885    0.25091    0.60517   1.00
C3       0.71694    0.25805    0.41566   1.00
C3       0.76485    0.28199    0.58359   1.00
C3       0.78506    0.24119    0.41680   1.00
C3       0.73367    0.21920    0.58415   1.00
H1       0.68915    0.26529    0.47192   1.00
H1       0.77785    0.30622    0.52685   1.00
H1       0.69048    0.26454    0.39968   1.00
H1       0.77688    0.30684    0.59895   1.00
H1       0.81194    0.23411    0.40179   1.00
H1       0.72167    0.19493    0.60043   1.00
C5       0.71814    0.18226    0.52239   1.00
H1       0.81080    0.23454    0.47401   1.00
H2       0.70352    0.16249    0.54354   1.00
H2       0.69546    0.19122    0.50103   1.00
N1       0.74944    0.16069    0.50292   1.00
C6       0.78125    0.14532    0.52012   1.00
C6       0.75148    0.15227    0.46460   1.00
C6       0.80410    0.12716    0.49243   1.00
C6       0.78517    0.13160    0.45711   1.00
H3       0.78769    0.14735    0.55099   1.00
H3       0.73005    0.16101    0.44309   1.00
H3       0.83148    0.11231    0.49741   1.00
H3       0.79486    0.12099    0.42903   1.00
C4       0.75009    0.47915    0.24995   1.00
C4       0.74991    0.52085    0.25005   1.00
C3       0.75846    0.45708    0.21619   1.00
C3       0.78155    0.54225    0.26548   1.00
C3       0.74173    0.45816    0.28443   1.00
C3a      0.71813    0.54263    0.23413   1.00
C2       0.74933    0.39483    0.25135   1.00
C2       0.75091    0.60517    0.24885   1.00
C3       0.75805    0.41566    0.21694   1.00
C3       0.78199    0.58359    0.26485   1.00
C3       0.74119    0.41680    0.28506   1.00
C3       0.71920    0.58415    0.23367   1.00
H1       0.76529    0.47192    0.18915   1.00
H1       0.80622    0.52685    0.27785   1.00
H1       0.76454    0.39968    0.19048   1.00
H1       0.80684    0.59895    0.27688   1.00
H1       0.73411    0.40179    0.31194   1.00
H1       0.69493    0.60043    0.22167   1.00
C5       0.68226    0.52239    0.21814   1.00
H1       0.73454    0.47401    0.31080   1.00
H2       0.66249    0.54354    0.20352   1.00
H2       0.69122    0.50103    0.19546   1.00
N1       0.66069    0.50292    0.24944   1.00
C6       0.64532    0.52012    0.28125   1.00
C6       0.65227    0.46460    0.25148   1.00
C6       0.62716    0.49243    0.30410   1.00
C6       0.63160    0.45711    0.28517   1.00
H3       0.64735    0.55099    0.28769   1.00
H3       0.66101    0.44309    0.23005   1.00
H3       0.61231    0.49741    0.33148   1.00
H3       0.62099    0.42903    0.29486   1.00
C4       0.52085    0.24995    0.24991   1.00
C4       0.47915    0.25005    0.25009   1.00
C3       0.54292    0.21619    0.24154   1.00
C3       0.45775    0.26548    0.21845   1.00
C3       0.54184    0.28443    0.25827   1.00
C3a      0.45737    0.23413    0.28187   1.00
C2       0.60517    0.25135    0.25067   1.00
C2       0.39483    0.24885    0.24909   1.00
C3       0.58434    0.21694    0.24195   1.00
C3       0.41641    0.26485    0.21801   1.00
C3       0.58320    0.28506    0.25881   1.00
C3       0.41585    0.23367    0.28080   1.00
H1       0.52808    0.18915    0.23471   1.00
H1       0.47315    0.27785    0.19378   1.00
H1       0.60032    0.19048    0.23546   1.00
H1       0.40105    0.27688    0.19316   1.00
H1       0.59821    0.31194    0.26589   1.00
H1       0.39957    0.22167    0.30507   1.00
C5       0.47761    0.21814    0.31774   1.00
H1       0.52599    0.31080    0.26546   1.00
H2       0.45646    0.20352    0.33751   1.00
H2       0.49897    0.19546    0.30878   1.00
N1       0.49708    0.24944    0.33931   1.00
C6       0.47988    0.28125    0.35468   1.00
C6       0.53540    0.25148    0.34773   1.00
C6       0.50757    0.30410    0.37284   1.00
C6       0.54289    0.28517    0.36840   1.00
H3       0.44901    0.28769    0.35265   1.00
H3       0.55691    0.23005    0.33899   1.00
H3       0.50259    0.33148    0.38769   1.00
H3       0.57097    0.29486    0.37901   1.00
C4       0.97915    0.24995    0.25009   1.00
C4       1.02085    0.25005    0.24991   1.00
C3       0.95708    0.21619    0.25846   1.00
C3       1.04225    0.26548    0.28155   1.00
C3       0.95816    0.28443    0.24173   1.00
C3a      1.04263    0.23413    0.21813   1.00
C2       0.89483    0.25135    0.24933   1.00
C2       1.10517    0.24885    0.25091   1.00
C3       0.91566    0.21694    0.25805   1.00
C3       1.08359    0.26485    0.28199   1.00
C3       0.91680    0.28506    0.24119   1.00
C3       1.08415    0.23367    0.21920   1.00
H1       0.97192    0.18915    0.26529   1.00
H1       1.02685    0.27785    0.30622   1.00
H1       0.89968    0.19048    0.26454   1.00
H1       1.09895    0.27688    0.30684   1.00
H1       0.90179    0.31194    0.23411   1.00
H1       1.10043    0.22167    0.19493   1.00
C5       1.02239    0.21814    0.18226   1.00
H1       0.97401    0.31080    0.23454   1.00
H2       1.04354    0.20352    0.16249   1.00
H2       1.00103    0.19546    0.19122   1.00
N1       1.00292    0.24944    0.16069   1.00
C6       1.02012    0.28125    0.14532   1.00
C6       0.96460    0.25148    0.15227   1.00
C6       0.99243    0.30410    0.12716   1.00
C6       0.95711    0.28517    0.13160   1.00
H3       1.05099    0.28769    0.14735   1.00
H3       0.94309    0.23005    0.16101   1.00
H3       0.99741    0.33148    0.11231   1.00
H3       0.92903    0.29486    0.12099   1.00
C4       0.74991    0.02085    0.24995   1.00
C4       0.75009    -0.02085   0.25005   1.00
C3       0.74154    0.04292    0.21619   1.00
C3       0.71845    -0.04225   0.26548   1.00
C3       0.75827    0.04184    0.28443   1.00
C3a      0.78187    -0.04263   0.23413   1.00
C2       0.75067    0.10517    0.25135   1.00
C2       0.74909    -0.10517   0.24885   1.00
C3       0.74195    0.08434    0.21694   1.00
C3       0.71801    -0.08359   0.26485   1.00
C3       0.75881    0.08320    0.28506   1.00
C3       0.78080    -0.08415   0.23367   1.00
H1       0.73471    0.02808    0.18915   1.00
H1       0.69378    -0.02685   0.27785   1.00
H1       0.73546    0.10032    0.19048   1.00
H1       0.69316    -0.09895   0.27688   1.00
H1       0.76589    0.09821    0.31194   1.00
H1       0.80507    -0.10043   0.22167   1.00
C5       0.81774    -0.02239   0.21814   1.00
H1       0.76546    0.02599    0.31080   1.00
H2       0.83751    -0.04354   0.20352   1.00
H2       0.80878    -0.00103   0.19546   1.00
N1       0.83931    -0.00292   0.24944   1.00
C6       0.85468    -0.02012   0.28125   1.00
C6       0.84773    0.03540    0.25148   1.00
C6       0.87284    0.00757    0.30410   1.00
C6       0.86840    0.04289    0.28517   1.00
H3       0.85265    -0.05099   0.28769   1.00
H3       0.83899    0.05691    0.23005   1.00
H3       0.88769    0.00259    0.33148   1.00
H3       0.87901    0.07097    0.29486   1.00
C4       0.74995    0.24991    0.02085   1.00
C4       0.75005    0.25009    -0.02085   1.00
C3       0.71619    0.24154    0.04292   1.00
C3       0.76548    0.21845    -0.04225   1.00
C3       0.78443    0.25827    0.04184   1.00
C3a      0.73413    0.28187    -0.04263   1.00
C2       0.75135    0.25067    0.10517   1.00
C2       0.74885    0.24909    -0.10517   1.00
C3       0.71694    0.24195    0.08434   1.00
C3       0.76485    0.21801    -0.08359   1.00
C3       0.78506    0.25881    0.08320   1.00
C3       0.73367    0.28080    -0.08415   1.00
H1       0.68915    0.23471    0.02808   1.00
H1       0.77785    0.19378    -0.02685   1.00
H1       0.69048    0.23546    0.10032   1.00
H1       0.77688    0.19316    -0.09895   1.00
H1       0.81194    0.26589    0.09821   1.00
H1       0.72167    0.30507    -0.10043   1.00
C5       0.71814    0.31774    -0.02239   1.00
H1       0.81080    0.26546    0.02599   1.00
H2       0.70352    0.33751    -0.04354   1.00
H2       0.69546    0.30878    -0.00103   1.00
N1       0.74944    0.33931    -0.00292   1.00
C6       0.78125    0.35468    -0.02012   1.00
C6       0.75148    0.34773    0.03540   1.00
C6       0.80410    0.37284    0.00757   1.00
C6       0.78517    0.36840    0.04289   1.00
H3       0.78769    0.35265    -0.05099   1.00
H3       0.73005    0.33899    0.05691   1.00
H3       0.83148    0.38769    0.00259   1.00
H3       0.79486    0.37901    0.07097   1.00
