data_IRMOF10_SG202_Ligand8_label_d.

_audit_creation_method             'generated by an auxiliary program of Tobunporous'

_symmetry_space_group_name_H-M     'P 1'
_symmetry_Int_Tables_number        1
_symmetry_cell_setting             triclinic

_cell_length_a                    34.2800
_cell_length_b                    34.2800
_cell_length_c                    34.2800
_cell_angle_alpha                 90.0000
_cell_angle_beta                  90.0000
_cell_angle_gamma                 90.0000

loop_
_atom_site_label
_atom_site_fract_x
_atom_site_fract_y
_atom_site_fract_z
_atom_site_occupancy
O1       0.75000    0.75000    0.75000   1.00
Zn1      0.71720    0.78280    0.78280   1.00
Zn1      0.78280    0.71720    0.78280   1.00
Zn1      0.78280    0.78280    0.71720   1.00
Zn1      0.71720    0.71720    0.71720   1.00
O2       0.72650    0.77350    0.83820   1.00
O2       0.72650    0.83820    0.77350   1.00
O2       0.66180    0.77350    0.77350   1.00
O2       0.77350    0.72650    0.83820   1.00
O2       0.83820    0.72650    0.77350   1.00
O2       0.77350    0.66180    0.77350   1.00
O2       0.77350    0.83820    0.72650   1.00
O2       0.83820    0.77350    0.72650   1.00
O2       0.77350    0.77350    0.66180   1.00
O2       0.66180    0.72650    0.72650   1.00
O2       0.72650    0.66180    0.72650   1.00
O2       0.72650    0.72650    0.66180   1.00
C1       0.75000    0.75000    0.85520   1.00
C1       0.75000    0.85520    0.75000   1.00
C1       0.64480    0.75000    0.75000   1.00
C1       0.85520    0.75000    0.75000   1.00
C1       0.75000    0.64480    0.75000   1.00
C1       0.75000    0.75000    0.64480   1.00
O1       0.25000    0.25000    0.75000   1.00
Zn1      0.21720    0.28280    0.78280   1.00
Zn1      0.28280    0.21720    0.78280   1.00
Zn1      0.28280    0.28280    0.71720   1.00
Zn1      0.21720    0.21720    0.71720   1.00
O2       0.22650    0.27350    0.83820   1.00
O2       0.22650    0.33820    0.77350   1.00
O2       0.16180    0.27350    0.77350   1.00
O2       0.27350    0.22650    0.83820   1.00
O2       0.33820    0.22650    0.77350   1.00
O2       0.27350    0.16180    0.77350   1.00
O2       0.27350    0.33820    0.72650   1.00
O2       0.33820    0.27350    0.72650   1.00
O2       0.27350    0.27350    0.66180   1.00
O2       0.16180    0.22650    0.72650   1.00
O2       0.22650    0.16180    0.72650   1.00
O2       0.22650    0.22650    0.66180   1.00
C1       0.25000    0.25000    0.85520   1.00
C1       0.25000    0.35520    0.75000   1.00
C1       0.14480    0.25000    0.75000   1.00
C1       0.35520    0.25000    0.75000   1.00
C1       0.25000    0.14480    0.75000   1.00
C1       0.25000    0.25000    0.64480   1.00
O1       0.25000    0.75000    0.25000   1.00
Zn1      0.21720    0.78280    0.28280   1.00
Zn1      0.28280    0.71720    0.28280   1.00
Zn1      0.28280    0.78280    0.21720   1.00
Zn1      0.21720    0.71720    0.21720   1.00
O2       0.22650    0.77350    0.33820   1.00
O2       0.22650    0.83820    0.27350   1.00
O2       0.16180    0.77350    0.27350   1.00
O2       0.27350    0.72650    0.33820   1.00
O2       0.33820    0.72650    0.27350   1.00
O2       0.27350    0.66180    0.27350   1.00
O2       0.27350    0.83820    0.22650   1.00
O2       0.33820    0.77350    0.22650   1.00
O2       0.27350    0.77350    0.16180   1.00
O2       0.16180    0.72650    0.22650   1.00
O2       0.22650    0.66180    0.22650   1.00
O2       0.22650    0.72650    0.16180   1.00
C1       0.25000    0.75000    0.35520   1.00
C1       0.25000    0.85520    0.25000   1.00
C1       0.14480    0.75000    0.25000   1.00
C1       0.35520    0.75000    0.25000   1.00
C1       0.25000    0.64480    0.25000   1.00
C1       0.25000    0.75000    0.14480   1.00
O1       0.75000    0.25000    0.25000   1.00
Zn1      0.71720    0.28280    0.28280   1.00
Zn1      0.78280    0.21720    0.28280   1.00
Zn1      0.78280    0.28280    0.21720   1.00
Zn1      0.71720    0.21720    0.21720   1.00
O2       0.72650    0.27350    0.33820   1.00
O2       0.72650    0.33820    0.27350   1.00
O2       0.66180    0.27350    0.27350   1.00
O2       0.77350    0.22650    0.33820   1.00
O2       0.83820    0.22650    0.27350   1.00
O2       0.77350    0.16180    0.27350   1.00
O2       0.77350    0.33820    0.22650   1.00
O2       0.83820    0.27350    0.22650   1.00
O2       0.77350    0.27350    0.16180   1.00
O2       0.66180    0.22650    0.22650   1.00
O2       0.72650    0.16180    0.22650   1.00
O2       0.72650    0.22650    0.16180   1.00
C1       0.75000    0.25000    0.35520   1.00
C1       0.75000    0.35520    0.25000   1.00
C1       0.64480    0.25000    0.25000   1.00
C1       0.85520    0.25000    0.25000   1.00
C1       0.75000    0.14480    0.25000   1.00
C1       0.75000    0.25000    0.14480   1.00
O1       0.25000    0.25000    0.25000   1.00
Zn1      0.28280    0.21720    0.21720   1.00
Zn1      0.21720    0.28280    0.21720   1.00
Zn1      0.21720    0.21720    0.28280   1.00
Zn1      0.28280    0.28280    0.28280   1.00
O2       0.27350    0.22650    0.16180   1.00
O2       0.27350    0.16180    0.22650   1.00
O2       0.33820    0.22650    0.22650   1.00
O2       0.22650    0.27350    0.16180   1.00
O2       0.16180    0.27350    0.22650   1.00
O2       0.22650    0.33820    0.22650   1.00
O2       0.22650    0.16180    0.27350   1.00
O2       0.16180    0.22650    0.27350   1.00
O2       0.22650    0.22650    0.33820   1.00
O2       0.33820    0.27350    0.27350   1.00
O2       0.27350    0.33820    0.27350   1.00
O2       0.27350    0.27350    0.33820   1.00
C1       0.25000    0.25000    0.14480   1.00
C1       0.25000    0.14480    0.25000   1.00
C1       0.35520    0.25000    0.25000   1.00
C1       0.14480    0.25000    0.25000   1.00
C1       0.25000    0.35520    0.25000   1.00
C1       0.25000    0.25000    0.35520   1.00
O1       0.75000    0.75000    0.25000   1.00
Zn1      0.78280    0.71720    0.21720   1.00
Zn1      0.71720    0.78280    0.21720   1.00
Zn1      0.71720    0.71720    0.28280   1.00
Zn1      0.78280    0.78280    0.28280   1.00
O2       0.77350    0.72650    0.16180   1.00
O2       0.77350    0.66180    0.22650   1.00
O2       0.83820    0.72650    0.22650   1.00
O2       0.72650    0.77350    0.16180   1.00
O2       0.66180    0.77350    0.22650   1.00
O2       0.72650    0.83820    0.22650   1.00
O2       0.72650    0.66180    0.27350   1.00
O2       0.66180    0.72650    0.27350   1.00
O2       0.72650    0.72650    0.33820   1.00
O2       0.83820    0.77350    0.27350   1.00
O2       0.77350    0.83820    0.27350   1.00
O2       0.77350    0.77350    0.33820   1.00
C1       0.75000    0.75000    0.14480   1.00
C1       0.75000    0.64480    0.25000   1.00
C1       0.85520    0.75000    0.25000   1.00
C1       0.64480    0.75000    0.25000   1.00
C1       0.75000    0.85520    0.25000   1.00
C1       0.75000    0.75000    0.35520   1.00
O1       0.75000    0.25000    0.75000   1.00
Zn1      0.78280    0.21720    0.71720   1.00
Zn1      0.71720    0.28280    0.71720   1.00
Zn1      0.71720    0.21720    0.78280   1.00
Zn1      0.78280    0.28280    0.78280   1.00
O2       0.77350    0.22650    0.66180   1.00
O2       0.77350    0.16180    0.72650   1.00
O2       0.83820    0.22650    0.72650   1.00
O2       0.72650    0.27350    0.66180   1.00
O2       0.66180    0.27350    0.72650   1.00
O2       0.72650    0.33820    0.72650   1.00
O2       0.72650    0.16180    0.77350   1.00
O2       0.66180    0.22650    0.77350   1.00
O2       0.72650    0.22650    0.83820   1.00
O2       0.83820    0.27350    0.77350   1.00
O2       0.77350    0.33820    0.77350   1.00
O2       0.77350    0.27350    0.83820   1.00
C1       0.75000    0.25000    0.64480   1.00
C1       0.75000    0.14480    0.75000   1.00
C1       0.85520    0.25000    0.75000   1.00
C1       0.64480    0.25000    0.75000   1.00
C1       0.75000    0.35520    0.75000   1.00
C1       0.75000    0.25000    0.85520   1.00
O1       0.25000    0.75000    0.75000   1.00
Zn1      0.28280    0.71720    0.71720   1.00
Zn1      0.21720    0.78280    0.71720   1.00
Zn1      0.21720    0.71720    0.78280   1.00
Zn1      0.28280    0.78280    0.78280   1.00
O2       0.27350    0.72650    0.66180   1.00
O2       0.27350    0.66180    0.72650   1.00
O2       0.33820    0.72650    0.72650   1.00
O2       0.22650    0.77350    0.66180   1.00
O2       0.16180    0.77350    0.72650   1.00
O2       0.22650    0.83820    0.72650   1.00
O2       0.22650    0.66180    0.77350   1.00
O2       0.16180    0.72650    0.77350   1.00
O2       0.22650    0.72650    0.83820   1.00
O2       0.33820    0.77350    0.77350   1.00
O2       0.27350    0.83820    0.77350   1.00
O2       0.27350    0.77350    0.83820   1.00
C1       0.25000    0.75000    0.64480   1.00
C1       0.25000    0.64480    0.75000   1.00
C1       0.35520    0.75000    0.75000   1.00
C1       0.14480    0.75000    0.75000   1.00
C1       0.25000    0.85520    0.75000   1.00
C1       0.25000    0.75000    0.85520   1.00
C4       0.75005    0.75008    0.97915   1.00
C4       0.74995    0.74992    1.02085   1.00
C3       0.74042    0.78351    0.95708   1.00
C3       0.78506    0.75237    1.04225   1.00
C3       0.76005    0.71604    0.95816   1.00
C3a      0.71446    0.74781    1.04263   1.00
C2       0.75010    0.74850    0.89483   1.00
C2       0.75022    0.75145    1.10517   1.00
C3       0.74044    0.78266    0.91566   1.00
C3       0.78513    0.75314    1.08359   1.00
C3       0.75990    0.71523    0.91680   1.00
C3       0.71516    0.74874    1.08415   1.00
H1       0.73282    0.81034    0.97192   1.00
H1       0.81262    0.75399    1.02685   1.00
H1       0.73283    0.80881    0.89968   1.00
H1       0.81266    0.75514    1.09895   1.00
H1       0.76721    0.68842    0.90179   1.00
H1       0.68814    0.74700    1.10043   1.00
C5       0.67540    0.74372    1.02239   1.00
H1       0.76701    0.68961    0.97401   1.00
H2       0.65097    0.74650    1.04354   1.00
H2       0.67183    0.76785    1.00103   1.00
N1       0.67237    0.70583    1.00292   1.00
C6       0.67496    0.67060    1.02012   1.00
C6       0.66610    0.69985    0.96460   1.00
C6       0.67067    0.64173    0.99243   1.00
C6       0.66504    0.66034    0.95711   1.00
H3       0.67994    0.66603    1.05099   1.00
H3       0.66295    0.72278    0.94309   1.00
H3       0.67150    0.61059    0.99741   1.00
H3       0.66070    0.64665    0.92903   1.00
C4       0.75008    0.97915    0.75005   1.00
C4       0.74992    1.02085    0.74995   1.00
C3       0.78351    0.95708    0.74042   1.00
C3       0.75237    1.04225    0.78506   1.00
C3       0.71604    0.95816    0.76005   1.00
C3a      0.74781    1.04263    0.71446   1.00
C2       0.74850    0.89483    0.75010   1.00
C2       0.75145    1.10517    0.75022   1.00
C3       0.78266    0.91566    0.74044   1.00
C3       0.75314    1.08359    0.78513   1.00
C3       0.71523    0.91680    0.75990   1.00
C3       0.74874    1.08415    0.71516   1.00
H1       0.81034    0.97192    0.73282   1.00
H1       0.75399    1.02685    0.81262   1.00
H1       0.80881    0.89968    0.73283   1.00
H1       0.75514    1.09895    0.81266   1.00
H1       0.68842    0.90179    0.76721   1.00
H1       0.74700    1.10043    0.68814   1.00
C5       0.74372    1.02239    0.67540   1.00
H1       0.68961    0.97401    0.76701   1.00
H2       0.74650    1.04354    0.65097   1.00
H2       0.76785    1.00103    0.67183   1.00
N1       0.70583    1.00292    0.67237   1.00
C6       0.67060    1.02012    0.67496   1.00
C6       0.69985    0.96460    0.66610   1.00
C6       0.64173    0.99243    0.67067   1.00
C6       0.66034    0.95711    0.66504   1.00
H3       0.66603    1.05099    0.67994   1.00
H3       0.72278    0.94309    0.66295   1.00
H3       0.61059    0.99741    0.67150   1.00
H3       0.64665    0.92903    0.66070   1.00
C4       0.52085    0.75005    0.74992   1.00
C4       0.47915    0.74995    0.75008   1.00
C3       0.54292    0.74042    0.71649   1.00
C3       0.45775    0.78506    0.74763   1.00
C3       0.54184    0.76005    0.78396   1.00
C3a      0.45737    0.71446    0.75219   1.00
C2       0.60517    0.75010    0.75150   1.00
C2       0.39483    0.75022    0.74855   1.00
C3       0.58434    0.74044    0.71734   1.00
C3       0.41641    0.78513    0.74686   1.00
C3       0.58320    0.75990    0.78477   1.00
C3       0.41585    0.71516    0.75126   1.00
H1       0.52808    0.73282    0.68966   1.00
H1       0.47315    0.81262    0.74601   1.00
H1       0.60032    0.73283    0.69119   1.00
H1       0.40105    0.81266    0.74486   1.00
H1       0.59821    0.76721    0.81158   1.00
H1       0.39957    0.68814    0.75300   1.00
C5       0.47761    0.67540    0.75628   1.00
H1       0.52599    0.76701    0.81039   1.00
H2       0.45646    0.65097    0.75350   1.00
H2       0.49897    0.67183    0.73215   1.00
N1       0.49708    0.67237    0.79417   1.00
C6       0.47988    0.67496    0.82940   1.00
C6       0.53540    0.66610    0.80015   1.00
C6       0.50757    0.67067    0.85827   1.00
C6       0.54289    0.66504    0.83966   1.00
H3       0.44901    0.67994    0.83397   1.00
H3       0.55691    0.66295    0.77722   1.00
H3       0.50259    0.67150    0.88941   1.00
H3       0.57097    0.66070    0.85335   1.00
C4       0.97915    0.75005    0.75008   1.00
C4       1.02085    0.74995    0.74992   1.00
C3       0.95708    0.74042    0.78351   1.00
C3       1.04225    0.78506    0.75237   1.00
C3       0.95816    0.76005    0.71604   1.00
C3a      1.04263    0.71446    0.74781   1.00
C2       0.89483    0.75010    0.74850   1.00
C2       1.10517    0.75022    0.75145   1.00
C3       0.91566    0.74044    0.78266   1.00
C3       1.08359    0.78513    0.75314   1.00
C3       0.91680    0.75990    0.71523   1.00
C3       1.08415    0.71516    0.74874   1.00
H1       0.97192    0.73282    0.81034   1.00
H1       1.02685    0.81262    0.75399   1.00
H1       0.89968    0.73283    0.80881   1.00
H1       1.09895    0.81266    0.75514   1.00
H1       0.90179    0.76721    0.68842   1.00
H1       1.10043    0.68814    0.74700   1.00
C5       1.02239    0.67540    0.74372   1.00
H1       0.97401    0.76701    0.68961   1.00
H2       1.04354    0.65097    0.74650   1.00
H2       1.00103    0.67183    0.76785   1.00
N1       1.00292    0.67237    0.70583   1.00
C6       1.02012    0.67496    0.67060   1.00
C6       0.96460    0.66610    0.69985   1.00
C6       0.99243    0.67067    0.64173   1.00
C6       0.95711    0.66504    0.66034   1.00
H3       1.05099    0.67994    0.66603   1.00
H3       0.94309    0.66295    0.72278   1.00
H3       0.99741    0.67150    0.61059   1.00
H3       0.92903    0.66070    0.64665   1.00
C4       0.74992    0.52085    0.75005   1.00
C4       0.75008    0.47915    0.74995   1.00
C3       0.71649    0.54292    0.74042   1.00
C3       0.74763    0.45775    0.78506   1.00
C3       0.78396    0.54184    0.76005   1.00
C3a      0.75219    0.45737    0.71446   1.00
C2       0.75150    0.60517    0.75010   1.00
C2       0.74855    0.39483    0.75022   1.00
C3       0.71734    0.58434    0.74044   1.00
C3       0.74686    0.41641    0.78513   1.00
C3       0.78477    0.58320    0.75990   1.00
C3       0.75126    0.41585    0.71516   1.00
H1       0.68966    0.52808    0.73282   1.00
H1       0.74601    0.47315    0.81262   1.00
H1       0.69119    0.60032    0.73283   1.00
H1       0.74486    0.40105    0.81266   1.00
H1       0.81158    0.59821    0.76721   1.00
H1       0.75300    0.39957    0.68814   1.00
C5       0.75628    0.47761    0.67540   1.00
H1       0.81039    0.52599    0.76701   1.00
H2       0.75350    0.45646    0.65097   1.00
H2       0.73215    0.49897    0.67183   1.00
N1       0.79417    0.49708    0.67237   1.00
C6       0.82940    0.47988    0.67496   1.00
C6       0.80015    0.53540    0.66610   1.00
C6       0.85827    0.50757    0.67067   1.00
C6       0.83966    0.54289    0.66504   1.00
H3       0.83397    0.44901    0.67994   1.00
H3       0.77722    0.55691    0.66295   1.00
H3       0.88941    0.50259    0.67150   1.00
H3       0.85335    0.57097    0.66070   1.00
C4       0.75005    0.74992    0.52085   1.00
C4       0.74995    0.75008    0.47915   1.00
C3       0.74042    0.71649    0.54292   1.00
C3       0.78506    0.74763    0.45775   1.00
C3       0.76005    0.78396    0.54184   1.00
C3a      0.71446    0.75219    0.45737   1.00
C2       0.75010    0.75150    0.60517   1.00
C2       0.75022    0.74855    0.39483   1.00
C3       0.74044    0.71734    0.58434   1.00
C3       0.78513    0.74686    0.41641   1.00
C3       0.75990    0.78477    0.58320   1.00
C3       0.71516    0.75126    0.41585   1.00
H1       0.73282    0.68966    0.52808   1.00
H1       0.81262    0.74601    0.47315   1.00
H1       0.73283    0.69119    0.60032   1.00
H1       0.81266    0.74486    0.40105   1.00
H1       0.76721    0.81158    0.59821   1.00
H1       0.68814    0.75300    0.39957   1.00
C5       0.67540    0.75628    0.47761   1.00
H1       0.76701    0.81039    0.52599   1.00
H2       0.65097    0.75350    0.45646   1.00
H2       0.67183    0.73215    0.49897   1.00
N1       0.67237    0.79417    0.49708   1.00
C6       0.67496    0.82940    0.47988   1.00
C6       0.66610    0.80015    0.53540   1.00
C6       0.67067    0.85827    0.50757   1.00
C6       0.66504    0.83966    0.54289   1.00
H3       0.67994    0.83397    0.44901   1.00
H3       0.66295    0.77722    0.55691   1.00
H3       0.67150    0.88941    0.50259   1.00
H3       0.66070    0.85335    0.57097   1.00
C4       0.25005    0.25008    0.97915   1.00
C4       0.24995    0.24992    1.02085   1.00
C3       0.24042    0.28351    0.95708   1.00
C3       0.28506    0.25237    1.04225   1.00
C3       0.26005    0.21604    0.95816   1.00
C3a      0.21446    0.24781    1.04263   1.00
C2       0.25010    0.24850    0.89483   1.00
C2       0.25022    0.25145    1.10517   1.00
C3       0.24044    0.28266    0.91566   1.00
C3       0.28513    0.25314    1.08359   1.00
C3       0.25990    0.21523    0.91680   1.00
C3       0.21516    0.24874    1.08415   1.00
H1       0.23282    0.31034    0.97192   1.00
H1       0.31262    0.25399    1.02685   1.00
H1       0.23283    0.30881    0.89968   1.00
H1       0.31266    0.25514    1.09895   1.00
H1       0.26721    0.18842    0.90179   1.00
H1       0.18814    0.24700    1.10043   1.00
C5       0.17540    0.24372    1.02239   1.00
H1       0.26701    0.18961    0.97401   1.00
H2       0.15097    0.24650    1.04354   1.00
H2       0.17183    0.26785    1.00103   1.00
N1       0.17237    0.20583    1.00292   1.00
C6       0.17496    0.17060    1.02012   1.00
C6       0.16610    0.19985    0.96460   1.00
C6       0.17067    0.14173    0.99243   1.00
C6       0.16504    0.16034    0.95711   1.00
H3       0.17994    0.16603    1.05099   1.00
H3       0.16295    0.22278    0.94309   1.00
H3       0.17150    0.11059    0.99741   1.00
H3       0.16070    0.14665    0.92903   1.00
C4       0.25008    0.47915    0.75005   1.00
C4       0.24992    0.52085    0.74995   1.00
C3       0.28351    0.45708    0.74042   1.00
C3       0.25237    0.54225    0.78506   1.00
C3       0.21604    0.45816    0.76005   1.00
C3a      0.24781    0.54263    0.71446   1.00
C2       0.24850    0.39483    0.75010   1.00
C2       0.25145    0.60517    0.75022   1.00
C3       0.28266    0.41566    0.74044   1.00
C3       0.25314    0.58359    0.78513   1.00
C3       0.21523    0.41680    0.75990   1.00
C3       0.24874    0.58415    0.71516   1.00
H1       0.31034    0.47192    0.73282   1.00
H1       0.25399    0.52685    0.81262   1.00
H1       0.30881    0.39968    0.73283   1.00
H1       0.25514    0.59895    0.81266   1.00
H1       0.18842    0.40179    0.76721   1.00
H1       0.24700    0.60043    0.68814   1.00
C5       0.24372    0.52239    0.67540   1.00
H1       0.18961    0.47401    0.76701   1.00
H2       0.24650    0.54354    0.65097   1.00
H2       0.26785    0.50103    0.67183   1.00
N1       0.20583    0.50292    0.67237   1.00
C6       0.17060    0.52012    0.67496   1.00
C6       0.19985    0.46460    0.66610   1.00
C6       0.14173    0.49243    0.67067   1.00
C6       0.16034    0.45711    0.66504   1.00
H3       0.16603    0.55099    0.67994   1.00
H3       0.22278    0.44309    0.66295   1.00
H3       0.11059    0.49741    0.67150   1.00
H3       0.14665    0.42903    0.66070   1.00
C4       0.02085    0.25005    0.74992   1.00
C4       -0.02085   0.24995    0.75008   1.00
C3       0.04292    0.24042    0.71649   1.00
C3       -0.04225   0.28506    0.74763   1.00
C3       0.04184    0.26005    0.78396   1.00
C3a      -0.04263   0.21446    0.75219   1.00
C2       0.10517    0.25010    0.75150   1.00
C2       -0.10517   0.25022    0.74855   1.00
C3       0.08434    0.24044    0.71734   1.00
C3       -0.08359   0.28513    0.74686   1.00
C3       0.08320    0.25990    0.78477   1.00
C3       -0.08415   0.21516    0.75126   1.00
H1       0.02808    0.23282    0.68966   1.00
H1       -0.02685   0.31262    0.74601   1.00
H1       0.10032    0.23283    0.69119   1.00
H1       -0.09895   0.31266    0.74486   1.00
H1       0.09821    0.26721    0.81158   1.00
H1       -0.10043   0.18814    0.75300   1.00
C5       -0.02239   0.17540    0.75628   1.00
H1       0.02599    0.26701    0.81039   1.00
H2       -0.04354   0.15097    0.75350   1.00
H2       -0.00103   0.17183    0.73215   1.00
N1       -0.00292   0.17237    0.79417   1.00
C6       -0.02012   0.17496    0.82940   1.00
C6       0.03540    0.16610    0.80015   1.00
C6       0.00757    0.17067    0.85827   1.00
C6       0.04289    0.16504    0.83966   1.00
H3       -0.05099   0.17994    0.83397   1.00
H3       0.05691    0.16295    0.77722   1.00
H3       0.00259    0.17150    0.88941   1.00
H3       0.07097    0.16070    0.85335   1.00
C4       0.47915    0.25005    0.75008   1.00
C4       0.52085    0.24995    0.74992   1.00
C3       0.45708    0.24042    0.78351   1.00
C3       0.54225    0.28506    0.75237   1.00
C3       0.45816    0.26005    0.71604   1.00
C3a      0.54263    0.21446    0.74781   1.00
C2       0.39483    0.25010    0.74850   1.00
C2       0.60517    0.25022    0.75145   1.00
C3       0.41566    0.24044    0.78266   1.00
C3       0.58359    0.28513    0.75314   1.00
C3       0.41680    0.25990    0.71523   1.00
C3       0.58415    0.21516    0.74874   1.00
H1       0.47192    0.23282    0.81034   1.00
H1       0.52685    0.31262    0.75399   1.00
H1       0.39968    0.23283    0.80881   1.00
H1       0.59895    0.31266    0.75514   1.00
H1       0.40179    0.26721    0.68842   1.00
H1       0.60043    0.18814    0.74700   1.00
C5       0.52239    0.17540    0.74372   1.00
H1       0.47401    0.26701    0.68961   1.00
H2       0.54354    0.15097    0.74650   1.00
H2       0.50103    0.17183    0.76785   1.00
N1       0.50292    0.17237    0.70583   1.00
C6       0.52012    0.17496    0.67060   1.00
C6       0.46460    0.16610    0.69985   1.00
C6       0.49243    0.17067    0.64173   1.00
C6       0.45711    0.16504    0.66034   1.00
H3       0.55099    0.17994    0.66603   1.00
H3       0.44309    0.16295    0.72278   1.00
H3       0.49741    0.17150    0.61059   1.00
H3       0.42903    0.16070    0.64665   1.00
C4       0.24992    0.02085    0.75005   1.00
C4       0.25008    -0.02085   0.74995   1.00
C3       0.21649    0.04292    0.74042   1.00
C3       0.24763    -0.04225   0.78506   1.00
C3       0.28396    0.04184    0.76005   1.00
C3a      0.25219    -0.04263   0.71446   1.00
C2       0.25150    0.10517    0.75010   1.00
C2       0.24855    -0.10517   0.75022   1.00
C3       0.21734    0.08434    0.74044   1.00
C3       0.24686    -0.08359   0.78513   1.00
C3       0.28477    0.08320    0.75990   1.00
C3       0.25126    -0.08415   0.71516   1.00
H1       0.18966    0.02808    0.73282   1.00
H1       0.24601    -0.02685   0.81262   1.00
H1       0.19119    0.10032    0.73283   1.00
H1       0.24486    -0.09895   0.81266   1.00
H1       0.31158    0.09821    0.76721   1.00
H1       0.25300    -0.10043   0.68814   1.00
C5       0.25628    -0.02239   0.67540   1.00
H1       0.31039    0.02599    0.76701   1.00
H2       0.25350    -0.04354   0.65097   1.00
H2       0.23215    -0.00103   0.67183   1.00
N1       0.29417    -0.00292   0.67237   1.00
C6       0.32940    -0.02012   0.67496   1.00
C6       0.30015    0.03540    0.66610   1.00
C6       0.35827    0.00757    0.67067   1.00
C6       0.33966    0.04289    0.66504   1.00
H3       0.33397    -0.05099   0.67994   1.00
H3       0.27722    0.05691    0.66295   1.00
H3       0.38941    0.00259    0.67150   1.00
H3       0.35335    0.07097    0.66070   1.00
C4       0.25005    0.24992    0.52085   1.00
C4       0.24995    0.25008    0.47915   1.00
C3       0.24042    0.21649    0.54292   1.00
C3       0.28506    0.24763    0.45775   1.00
C3       0.26005    0.28396    0.54184   1.00
C3a      0.21446    0.25219    0.45737   1.00
C2       0.25010    0.25150    0.60517   1.00
C2       0.25022    0.24855    0.39483   1.00
C3       0.24044    0.21734    0.58434   1.00
C3       0.28513    0.24686    0.41641   1.00
C3       0.25990    0.28477    0.58320   1.00
C3       0.21516    0.25126    0.41585   1.00
H1       0.23282    0.18966    0.52808   1.00
H1       0.31262    0.24601    0.47315   1.00
H1       0.23283    0.19119    0.60032   1.00
H1       0.31266    0.24486    0.40105   1.00
H1       0.26721    0.31158    0.59821   1.00
H1       0.18814    0.25300    0.39957   1.00
C5       0.17540    0.25628    0.47761   1.00
H1       0.26701    0.31039    0.52599   1.00
H2       0.15097    0.25350    0.45646   1.00
H2       0.17183    0.23215    0.49897   1.00
N1       0.17237    0.29417    0.49708   1.00
C6       0.17496    0.32940    0.47988   1.00
C6       0.16610    0.30015    0.53540   1.00
C6       0.17067    0.35827    0.50757   1.00
C6       0.16504    0.33966    0.54289   1.00
H3       0.17994    0.33397    0.44901   1.00
H3       0.16295    0.27722    0.55691   1.00
H3       0.17150    0.38941    0.50259   1.00
H3       0.16070    0.35335    0.57097   1.00
C4       0.25005    0.75008    0.47915   1.00
C4       0.24995    0.74992    0.52085   1.00
C3       0.24042    0.78351    0.45708   1.00
C3       0.28506    0.75237    0.54225   1.00
C3       0.26005    0.71604    0.45816   1.00
C3a      0.21446    0.74781    0.54263   1.00
C2       0.25010    0.74850    0.39483   1.00
C2       0.25022    0.75145    0.60517   1.00
C3       0.24044    0.78266    0.41566   1.00
C3       0.28513    0.75314    0.58359   1.00
C3       0.25990    0.71523    0.41680   1.00
C3       0.21516    0.74874    0.58415   1.00
H1       0.23282    0.81034    0.47192   1.00
H1       0.31262    0.75399    0.52685   1.00
H1       0.23283    0.80881    0.39968   1.00
H1       0.31266    0.75514    0.59895   1.00
H1       0.26721    0.68842    0.40179   1.00
H1       0.18814    0.74700    0.60043   1.00
C5       0.17540    0.74372    0.52239   1.00
H1       0.26701    0.68961    0.47401   1.00
H2       0.15097    0.74650    0.54354   1.00
H2       0.17183    0.76785    0.50103   1.00
N1       0.17237    0.70583    0.50292   1.00
C6       0.17496    0.67060    0.52012   1.00
C6       0.16610    0.69985    0.46460   1.00
C6       0.17067    0.64173    0.49243   1.00
C6       0.16504    0.66034    0.45711   1.00
H3       0.17994    0.66603    0.55099   1.00
H3       0.16295    0.72278    0.44309   1.00
H3       0.17150    0.61059    0.49741   1.00
H3       0.16070    0.64665    0.42903   1.00
C4       0.25008    0.97915    0.25005   1.00
C4       0.24992    1.02085    0.24995   1.00
C3       0.28351    0.95708    0.24042   1.00
C3       0.25237    1.04225    0.28506   1.00
C3       0.21604    0.95816    0.26005   1.00
C3a      0.24781    1.04263    0.21446   1.00
C2       0.24850    0.89483    0.25010   1.00
C2       0.25145    1.10517    0.25022   1.00
C3       0.28266    0.91566    0.24044   1.00
C3       0.25314    1.08359    0.28513   1.00
C3       0.21523    0.91680    0.25990   1.00
C3       0.24874    1.08415    0.21516   1.00
H1       0.31034    0.97192    0.23282   1.00
H1       0.25399    1.02685    0.31262   1.00
H1       0.30881    0.89968    0.23283   1.00
H1       0.25514    1.09895    0.31266   1.00
H1       0.18842    0.90179    0.26721   1.00
H1       0.24700    1.10043    0.18814   1.00
C5       0.24372    1.02239    0.17540   1.00
H1       0.18961    0.97401    0.26701   1.00
H2       0.24650    1.04354    0.15097   1.00
H2       0.26785    1.00103    0.17183   1.00
N1       0.20583    1.00292    0.17237   1.00
C6       0.17060    1.02012    0.17496   1.00
C6       0.19985    0.96460    0.16610   1.00
C6       0.14173    0.99243    0.17067   1.00
C6       0.16034    0.95711    0.16504   1.00
H3       0.16603    1.05099    0.17994   1.00
H3       0.22278    0.94309    0.16295   1.00
H3       0.11059    0.99741    0.17150   1.00
H3       0.14665    0.92903    0.16070   1.00
C4       0.02085    0.75005    0.24992   1.00
C4       -0.02085   0.74995    0.25008   1.00
C3       0.04292    0.74042    0.21649   1.00
C3       -0.04225   0.78506    0.24763   1.00
C3       0.04184    0.76005    0.28396   1.00
C3a      -0.04263   0.71446    0.25219   1.00
C2       0.10517    0.75010    0.25150   1.00
C2       -0.10517   0.75022    0.24855   1.00
C3       0.08434    0.74044    0.21734   1.00
C3       -0.08359   0.78513    0.24686   1.00
C3       0.08320    0.75990    0.28477   1.00
C3       -0.08415   0.71516    0.25126   1.00
H1       0.02808    0.73282    0.18966   1.00
H1       -0.02685   0.81262    0.24601   1.00
H1       0.10032    0.73283    0.19119   1.00
H1       -0.09895   0.81266    0.24486   1.00
H1       0.09821    0.76721    0.31158   1.00
H1       -0.10043   0.68814    0.25300   1.00
C5       -0.02239   0.67540    0.25628   1.00
H1       0.02599    0.76701    0.31039   1.00
H2       -0.04354   0.65097    0.25350   1.00
H2       -0.00103   0.67183    0.23215   1.00
N1       -0.00292   0.67237    0.29417   1.00
C6       -0.02012   0.67496    0.32940   1.00
C6       0.03540    0.66610    0.30015   1.00
C6       0.00757    0.67067    0.35827   1.00
C6       0.04289    0.66504    0.33966   1.00
H3       -0.05099   0.67994    0.33397   1.00
H3       0.05691    0.66295    0.27722   1.00
H3       0.00259    0.67150    0.38941   1.00
H3       0.07097    0.66070    0.35335   1.00
C4       0.47915    0.75005    0.25008   1.00
C4       0.52085    0.74995    0.24992   1.00
C3       0.45708    0.74042    0.28351   1.00
C3       0.54225    0.78506    0.25237   1.00
C3       0.45816    0.76005    0.21604   1.00
C3a      0.54263    0.71446    0.24781   1.00
C2       0.39483    0.75010    0.24850   1.00
C2       0.60517    0.75022    0.25145   1.00
C3       0.41566    0.74044    0.28266   1.00
C3       0.58359    0.78513    0.25314   1.00
C3       0.41680    0.75990    0.21523   1.00
C3       0.58415    0.71516    0.24874   1.00
H1       0.47192    0.73282    0.31034   1.00
H1       0.52685    0.81262    0.25399   1.00
H1       0.39968    0.73283    0.30881   1.00
H1       0.59895    0.81266    0.25514   1.00
H1       0.40179    0.76721    0.18842   1.00
H1       0.60043    0.68814    0.24700   1.00
C5       0.52239    0.67540    0.24372   1.00
H1       0.47401    0.76701    0.18961   1.00
H2       0.54354    0.65097    0.24650   1.00
H2       0.50103    0.67183    0.26785   1.00
N1       0.50292    0.67237    0.20583   1.00
C6       0.52012    0.67496    0.17060   1.00
C6       0.46460    0.66610    0.19985   1.00
C6       0.49243    0.67067    0.14173   1.00
C6       0.45711    0.66504    0.16034   1.00
H3       0.55099    0.67994    0.16603   1.00
H3       0.44309    0.66295    0.22278   1.00
H3       0.49741    0.67150    0.11059   1.00
H3       0.42903    0.66070    0.14665   1.00
C4       0.24992    0.52085    0.25005   1.00
C4       0.25008    0.47915    0.24995   1.00
C3       0.21649    0.54292    0.24042   1.00
C3       0.24763    0.45775    0.28506   1.00
C3       0.28396    0.54184    0.26005   1.00
C3a      0.25219    0.45737    0.21446   1.00
C2       0.25150    0.60517    0.25010   1.00
C2       0.24855    0.39483    0.25022   1.00
C3       0.21734    0.58434    0.24044   1.00
C3       0.24686    0.41641    0.28513   1.00
C3       0.28477    0.58320    0.25990   1.00
C3       0.25126    0.41585    0.21516   1.00
H1       0.18966    0.52808    0.23282   1.00
H1       0.24601    0.47315    0.31262   1.00
H1       0.19119    0.60032    0.23283   1.00
H1       0.24486    0.40105    0.31266   1.00
H1       0.31158    0.59821    0.26721   1.00
H1       0.25300    0.39957    0.18814   1.00
C5       0.25628    0.47761    0.17540   1.00
H1       0.31039    0.52599    0.26701   1.00
H2       0.25350    0.45646    0.15097   1.00
H2       0.23215    0.49897    0.17183   1.00
N1       0.29417    0.49708    0.17237   1.00
C6       0.32940    0.47988    0.17496   1.00
C6       0.30015    0.53540    0.16610   1.00
C6       0.35827    0.50757    0.17067   1.00
C6       0.33966    0.54289    0.16504   1.00
H3       0.33397    0.44901    0.17994   1.00
H3       0.27722    0.55691    0.16295   1.00
H3       0.38941    0.50259    0.17150   1.00
H3       0.35335    0.57097    0.16070   1.00
C4       0.25005    0.74992    0.02085   1.00
C4       0.24995    0.75008    -0.02085   1.00
C3       0.24042    0.71649    0.04292   1.00
C3       0.28506    0.74763    -0.04225   1.00
C3       0.26005    0.78396    0.04184   1.00
C3a      0.21446    0.75219    -0.04263   1.00
C2       0.25010    0.75150    0.10517   1.00
C2       0.25022    0.74855    -0.10517   1.00
C3       0.24044    0.71734    0.08434   1.00
C3       0.28513    0.74686    -0.08359   1.00
C3       0.25990    0.78477    0.08320   1.00
C3       0.21516    0.75126    -0.08415   1.00
H1       0.23282    0.68966    0.02808   1.00
H1       0.31262    0.74601    -0.02685   1.00
H1       0.23283    0.69119    0.10032   1.00
H1       0.31266    0.74486    -0.09895   1.00
H1       0.26721    0.81158    0.09821   1.00
H1       0.18814    0.75300    -0.10043   1.00
C5       0.17540    0.75628    -0.02239   1.00
H1       0.26701    0.81039    0.02599   1.00
H2       0.15097    0.75350    -0.04354   1.00
H2       0.17183    0.73215    -0.00103   1.00
N1       0.17237    0.79417    -0.00292   1.00
C6       0.17496    0.82940    -0.02012   1.00
C6       0.16610    0.80015    0.03540   1.00
C6       0.17067    0.85827    0.00757   1.00
C6       0.16504    0.83966    0.04289   1.00
H3       0.17994    0.83397    -0.05099   1.00
H3       0.16295    0.77722    0.05691   1.00
H3       0.17150    0.88941    0.00259   1.00
H3       0.16070    0.85335    0.07097   1.00
C4       0.75005    0.25008    0.47915   1.00
C4       0.74995    0.24992    0.52085   1.00
C3       0.74042    0.28351    0.45708   1.00
C3       0.78506    0.25237    0.54225   1.00
C3       0.76005    0.21604    0.45816   1.00
C3a      0.71446    0.24781    0.54263   1.00
C2       0.75010    0.24850    0.39483   1.00
C2       0.75022    0.25145    0.60517   1.00
C3       0.74044    0.28266    0.41566   1.00
C3       0.78513    0.25314    0.58359   1.00
C3       0.75990    0.21523    0.41680   1.00
C3       0.71516    0.24874    0.58415   1.00
H1       0.73282    0.31034    0.47192   1.00
H1       0.81262    0.25399    0.52685   1.00
H1       0.73283    0.30881    0.39968   1.00
H1       0.81266    0.25514    0.59895   1.00
H1       0.76721    0.18842    0.40179   1.00
H1       0.68814    0.24700    0.60043   1.00
C5       0.67540    0.24372    0.52239   1.00
H1       0.76701    0.18961    0.47401   1.00
H2       0.65097    0.24650    0.54354   1.00
H2       0.67183    0.26785    0.50103   1.00
N1       0.67237    0.20583    0.50292   1.00
C6       0.67496    0.17060    0.52012   1.00
C6       0.66610    0.19985    0.46460   1.00
C6       0.67067    0.14173    0.49243   1.00
C6       0.66504    0.16034    0.45711   1.00
H3       0.67994    0.16603    0.55099   1.00
H3       0.66295    0.22278    0.44309   1.00
H3       0.67150    0.11059    0.49741   1.00
H3       0.66070    0.14665    0.42903   1.00
C4       0.75008    0.47915    0.25005   1.00
C4       0.74992    0.52085    0.24995   1.00
C3       0.78351    0.45708    0.24042   1.00
C3       0.75237    0.54225    0.28506   1.00
C3       0.71604    0.45816    0.26005   1.00
C3a      0.74781    0.54263    0.21446   1.00
C2       0.74850    0.39483    0.25010   1.00
C2       0.75145    0.60517    0.25022   1.00
C3       0.78266    0.41566    0.24044   1.00
C3       0.75314    0.58359    0.28513   1.00
C3       0.71523    0.41680    0.25990   1.00
C3       0.74874    0.58415    0.21516   1.00
H1       0.81034    0.47192    0.23282   1.00
H1       0.75399    0.52685    0.31262   1.00
H1       0.80881    0.39968    0.23283   1.00
H1       0.75514    0.59895    0.31266   1.00
H1       0.68842    0.40179    0.26721   1.00
H1       0.74700    0.60043    0.18814   1.00
C5       0.74372    0.52239    0.17540   1.00
H1       0.68961    0.47401    0.26701   1.00
H2       0.74650    0.54354    0.15097   1.00
H2       0.76785    0.50103    0.17183   1.00
N1       0.70583    0.50292    0.17237   1.00
C6       0.67060    0.52012    0.17496   1.00
C6       0.69985    0.46460    0.16610   1.00
C6       0.64173    0.49243    0.17067   1.00
C6       0.66034    0.45711    0.16504   1.00
H3       0.66603    0.55099    0.17994   1.00
H3       0.72278    0.44309    0.16295   1.00
H3       0.61059    0.49741    0.17150   1.00
H3       0.64665    0.42903    0.16070   1.00
C4       0.52085    0.25005    0.24992   1.00
C4       0.47915    0.24995    0.25008   1.00
C3       0.54292    0.24042    0.21649   1.00
C3       0.45775    0.28506    0.24763   1.00
C3       0.54184    0.26005    0.28396   1.00
C3a      0.45737    0.21446    0.25219   1.00
C2       0.60517    0.25010    0.25150   1.00
C2       0.39483    0.25022    0.24855   1.00
C3       0.58434    0.24044    0.21734   1.00
C3       0.41641    0.28513    0.24686   1.00
C3       0.58320    0.25990    0.28477   1.00
C3       0.41585    0.21516    0.25126   1.00
H1       0.52808    0.23282    0.18966   1.00
H1       0.47315    0.31262    0.24601   1.00
H1       0.60032    0.23283    0.19119   1.00
H1       0.40105    0.31266    0.24486   1.00
H1       0.59821    0.26721    0.31158   1.00
H1       0.39957    0.18814    0.25300   1.00
C5       0.47761    0.17540    0.25628   1.00
H1       0.52599    0.26701    0.31039   1.00
H2       0.45646    0.15097    0.25350   1.00
H2       0.49897    0.17183    0.23215   1.00
N1       0.49708    0.17237    0.29417   1.00
C6       0.47988    0.17496    0.32940   1.00
C6       0.53540    0.16610    0.30015   1.00
C6       0.50757    0.17067    0.35827   1.00
C6       0.54289    0.16504    0.33966   1.00
H3       0.44901    0.17994    0.33397   1.00
H3       0.55691    0.16295    0.27722   1.00
H3       0.50259    0.17150    0.38941   1.00
H3       0.57097    0.16070    0.35335   1.00
C4       0.97915    0.25005    0.25008   1.00
C4       1.02085    0.24995    0.24992   1.00
C3       0.95708    0.24042    0.28351   1.00
C3       1.04225    0.28506    0.25237   1.00
C3       0.95816    0.26005    0.21604   1.00
C3a      1.04263    0.21446    0.24781   1.00
C2       0.89483    0.25010    0.24850   1.00
C2       1.10517    0.25022    0.25145   1.00
C3       0.91566    0.24044    0.28266   1.00
C3       1.08359    0.28513    0.25314   1.00
C3       0.91680    0.25990    0.21523   1.00
C3       1.08415    0.21516    0.24874   1.00
H1       0.97192    0.23282    0.31034   1.00
H1       1.02685    0.31262    0.25399   1.00
H1       0.89968    0.23283    0.30881   1.00
H1       1.09895    0.31266    0.25514   1.00
H1       0.90179    0.26721    0.18842   1.00
H1       1.10043    0.18814    0.24700   1.00
C5       1.02239    0.17540    0.24372   1.00
H1       0.97401    0.26701    0.18961   1.00
H2       1.04354    0.15097    0.24650   1.00
H2       1.00103    0.17183    0.26785   1.00
N1       1.00292    0.17237    0.20583   1.00
C6       1.02012    0.17496    0.17060   1.00
C6       0.96460    0.16610    0.19985   1.00
C6       0.99243    0.17067    0.14173   1.00
C6       0.95711    0.16504    0.16034   1.00
H3       1.05099    0.17994    0.16603   1.00
H3       0.94309    0.16295    0.22278   1.00
H3       0.99741    0.17150    0.11059   1.00
H3       0.92903    0.16070    0.14665   1.00
C4       0.74992    0.02085    0.25005   1.00
C4       0.75008    -0.02085   0.24995   1.00
C3       0.71649    0.04292    0.24042   1.00
C3       0.74763    -0.04225   0.28506   1.00
C3       0.78396    0.04184    0.26005   1.00
C3a      0.75219    -0.04263   0.21446   1.00
C2       0.75150    0.10517    0.25010   1.00
C2       0.74855    -0.10517   0.25022   1.00
C3       0.71734    0.08434    0.24044   1.00
C3       0.74686    -0.08359   0.28513   1.00
C3       0.78477    0.08320    0.25990   1.00
C3       0.75126    -0.08415   0.21516   1.00
H1       0.68966    0.02808    0.23282   1.00
H1       0.74601    -0.02685   0.31262   1.00
H1       0.69119    0.10032    0.23283   1.00
H1       0.74486    -0.09895   0.31266   1.00
H1       0.81158    0.09821    0.26721   1.00
H1       0.75300    -0.10043   0.18814   1.00
C5       0.75628    -0.02239   0.17540   1.00
H1       0.81039    0.02599    0.26701   1.00
H2       0.75350    -0.04354   0.15097   1.00
H2       0.73215    -0.00103   0.17183   1.00
N1       0.79417    -0.00292   0.17237   1.00
C6       0.82940    -0.02012   0.17496   1.00
C6       0.80015    0.03540    0.16610   1.00
C6       0.85827    0.00757    0.17067   1.00
C6       0.83966    0.04289    0.16504   1.00
H3       0.83397    -0.05099   0.17994   1.00
H3       0.77722    0.05691    0.16295   1.00
H3       0.88941    0.00259    0.17150   1.00
H3       0.85335    0.07097    0.16070   1.00
C4       0.75005    0.24992    0.02085   1.00
C4       0.74995    0.25008    -0.02085   1.00
C3       0.74042    0.21649    0.04292   1.00
C3       0.78506    0.24763    -0.04225   1.00
C3       0.76005    0.28396    0.04184   1.00
C3a      0.71446    0.25219    -0.04263   1.00
C2       0.75010    0.25150    0.10517   1.00
C2       0.75022    0.24855    -0.10517   1.00
C3       0.74044    0.21734    0.08434   1.00
C3       0.78513    0.24686    -0.08359   1.00
C3       0.75990    0.28477    0.08320   1.00
C3       0.71516    0.25126    -0.08415   1.00
H1       0.73282    0.18966    0.02808   1.00
H1       0.81262    0.24601    -0.02685   1.00
H1       0.73283    0.19119    0.10032   1.00
H1       0.81266    0.24486    -0.09895   1.00
H1       0.76721    0.31158    0.09821   1.00
H1       0.68814    0.25300    -0.10043   1.00
C5       0.67540    0.25628    -0.02239   1.00
H1       0.76701    0.31039    0.02599   1.00
H2       0.65097    0.25350    -0.04354   1.00
H2       0.67183    0.23215    -0.00103   1.00
N1       0.67237    0.29417    -0.00292   1.00
C6       0.67496    0.32940    -0.02012   1.00
C6       0.66610    0.30015    0.03540   1.00
C6       0.67067    0.35827    0.00757   1.00
C6       0.66504    0.33966    0.04289   1.00
H3       0.67994    0.33397    -0.05099   1.00
H3       0.66295    0.27722    0.05691   1.00
H3       0.67150    0.38941    0.00259   1.00
H3       0.66070    0.35335    0.07097   1.00
