data_IRMOF10_SG202_Ligand5_label_j.

_audit_creation_method             'generated by an auxiliary program of Tobunporous'

_symmetry_space_group_name_H-M     'P 1'
_symmetry_Int_Tables_number        1
_symmetry_cell_setting             triclinic

_cell_length_a                    34.2800
_cell_length_b                    34.2800
_cell_length_c                    34.2800
_cell_angle_alpha                 90.0000
_cell_angle_beta                  90.0000
_cell_angle_gamma                 90.0000

loop_
_atom_site_label
_atom_site_fract_x
_atom_site_fract_y
_atom_site_fract_z
_atom_site_occupancy
O1       0.75000    0.75000    0.75000   1.00
Zn1      0.71720    0.78280    0.78280   1.00
Zn1      0.78280    0.71720    0.78280   1.00
Zn1      0.78280    0.78280    0.71720   1.00
Zn1      0.71720    0.71720    0.71720   1.00
O2       0.72650    0.77350    0.83820   1.00
O2       0.72650    0.83820    0.77350   1.00
O2       0.66180    0.77350    0.77350   1.00
O2       0.77350    0.72650    0.83820   1.00
O2       0.83820    0.72650    0.77350   1.00
O2       0.77350    0.66180    0.77350   1.00
O2       0.77350    0.83820    0.72650   1.00
O2       0.83820    0.77350    0.72650   1.00
O2       0.77350    0.77350    0.66180   1.00
O2       0.66180    0.72650    0.72650   1.00
O2       0.72650    0.66180    0.72650   1.00
O2       0.72650    0.72650    0.66180   1.00
C1       0.75000    0.75000    0.85520   1.00
C1       0.75000    0.85520    0.75000   1.00
C1       0.64480    0.75000    0.75000   1.00
C1       0.85520    0.75000    0.75000   1.00
C1       0.75000    0.64480    0.75000   1.00
C1       0.75000    0.75000    0.64480   1.00
O1       0.25000    0.25000    0.75000   1.00
Zn1      0.21720    0.28280    0.78280   1.00
Zn1      0.28280    0.21720    0.78280   1.00
Zn1      0.28280    0.28280    0.71720   1.00
Zn1      0.21720    0.21720    0.71720   1.00
O2       0.22650    0.27350    0.83820   1.00
O2       0.22650    0.33820    0.77350   1.00
O2       0.16180    0.27350    0.77350   1.00
O2       0.27350    0.22650    0.83820   1.00
O2       0.33820    0.22650    0.77350   1.00
O2       0.27350    0.16180    0.77350   1.00
O2       0.27350    0.33820    0.72650   1.00
O2       0.33820    0.27350    0.72650   1.00
O2       0.27350    0.27350    0.66180   1.00
O2       0.16180    0.22650    0.72650   1.00
O2       0.22650    0.16180    0.72650   1.00
O2       0.22650    0.22650    0.66180   1.00
C1       0.25000    0.25000    0.85520   1.00
C1       0.25000    0.35520    0.75000   1.00
C1       0.14480    0.25000    0.75000   1.00
C1       0.35520    0.25000    0.75000   1.00
C1       0.25000    0.14480    0.75000   1.00
C1       0.25000    0.25000    0.64480   1.00
O1       0.25000    0.75000    0.25000   1.00
Zn1      0.21720    0.78280    0.28280   1.00
Zn1      0.28280    0.71720    0.28280   1.00
Zn1      0.28280    0.78280    0.21720   1.00
Zn1      0.21720    0.71720    0.21720   1.00
O2       0.22650    0.77350    0.33820   1.00
O2       0.22650    0.83820    0.27350   1.00
O2       0.16180    0.77350    0.27350   1.00
O2       0.27350    0.72650    0.33820   1.00
O2       0.33820    0.72650    0.27350   1.00
O2       0.27350    0.66180    0.27350   1.00
O2       0.27350    0.83820    0.22650   1.00
O2       0.33820    0.77350    0.22650   1.00
O2       0.27350    0.77350    0.16180   1.00
O2       0.16180    0.72650    0.22650   1.00
O2       0.22650    0.66180    0.22650   1.00
O2       0.22650    0.72650    0.16180   1.00
C1       0.25000    0.75000    0.35520   1.00
C1       0.25000    0.85520    0.25000   1.00
C1       0.14480    0.75000    0.25000   1.00
C1       0.35520    0.75000    0.25000   1.00
C1       0.25000    0.64480    0.25000   1.00
C1       0.25000    0.75000    0.14480   1.00
O1       0.75000    0.25000    0.25000   1.00
Zn1      0.71720    0.28280    0.28280   1.00
Zn1      0.78280    0.21720    0.28280   1.00
Zn1      0.78280    0.28280    0.21720   1.00
Zn1      0.71720    0.21720    0.21720   1.00
O2       0.72650    0.27350    0.33820   1.00
O2       0.72650    0.33820    0.27350   1.00
O2       0.66180    0.27350    0.27350   1.00
O2       0.77350    0.22650    0.33820   1.00
O2       0.83820    0.22650    0.27350   1.00
O2       0.77350    0.16180    0.27350   1.00
O2       0.77350    0.33820    0.22650   1.00
O2       0.83820    0.27350    0.22650   1.00
O2       0.77350    0.27350    0.16180   1.00
O2       0.66180    0.22650    0.22650   1.00
O2       0.72650    0.16180    0.22650   1.00
O2       0.72650    0.22650    0.16180   1.00
C1       0.75000    0.25000    0.35520   1.00
C1       0.75000    0.35520    0.25000   1.00
C1       0.64480    0.25000    0.25000   1.00
C1       0.85520    0.25000    0.25000   1.00
C1       0.75000    0.14480    0.25000   1.00
C1       0.75000    0.25000    0.14480   1.00
O1       0.25000    0.25000    0.25000   1.00
Zn1      0.28280    0.21720    0.21720   1.00
Zn1      0.21720    0.28280    0.21720   1.00
Zn1      0.21720    0.21720    0.28280   1.00
Zn1      0.28280    0.28280    0.28280   1.00
O2       0.27350    0.22650    0.16180   1.00
O2       0.27350    0.16180    0.22650   1.00
O2       0.33820    0.22650    0.22650   1.00
O2       0.22650    0.27350    0.16180   1.00
O2       0.16180    0.27350    0.22650   1.00
O2       0.22650    0.33820    0.22650   1.00
O2       0.22650    0.16180    0.27350   1.00
O2       0.16180    0.22650    0.27350   1.00
O2       0.22650    0.22650    0.33820   1.00
O2       0.33820    0.27350    0.27350   1.00
O2       0.27350    0.33820    0.27350   1.00
O2       0.27350    0.27350    0.33820   1.00
C1       0.25000    0.25000    0.14480   1.00
C1       0.25000    0.14480    0.25000   1.00
C1       0.35520    0.25000    0.25000   1.00
C1       0.14480    0.25000    0.25000   1.00
C1       0.25000    0.35520    0.25000   1.00
C1       0.25000    0.25000    0.35520   1.00
O1       0.75000    0.75000    0.25000   1.00
Zn1      0.78280    0.71720    0.21720   1.00
Zn1      0.71720    0.78280    0.21720   1.00
Zn1      0.71720    0.71720    0.28280   1.00
Zn1      0.78280    0.78280    0.28280   1.00
O2       0.77350    0.72650    0.16180   1.00
O2       0.77350    0.66180    0.22650   1.00
O2       0.83820    0.72650    0.22650   1.00
O2       0.72650    0.77350    0.16180   1.00
O2       0.66180    0.77350    0.22650   1.00
O2       0.72650    0.83820    0.22650   1.00
O2       0.72650    0.66180    0.27350   1.00
O2       0.66180    0.72650    0.27350   1.00
O2       0.72650    0.72650    0.33820   1.00
O2       0.83820    0.77350    0.27350   1.00
O2       0.77350    0.83820    0.27350   1.00
O2       0.77350    0.77350    0.33820   1.00
C1       0.75000    0.75000    0.14480   1.00
C1       0.75000    0.64480    0.25000   1.00
C1       0.85520    0.75000    0.25000   1.00
C1       0.64480    0.75000    0.25000   1.00
C1       0.75000    0.85520    0.25000   1.00
C1       0.75000    0.75000    0.35520   1.00
O1       0.75000    0.25000    0.75000   1.00
Zn1      0.78280    0.21720    0.71720   1.00
Zn1      0.71720    0.28280    0.71720   1.00
Zn1      0.71720    0.21720    0.78280   1.00
Zn1      0.78280    0.28280    0.78280   1.00
O2       0.77350    0.22650    0.66180   1.00
O2       0.77350    0.16180    0.72650   1.00
O2       0.83820    0.22650    0.72650   1.00
O2       0.72650    0.27350    0.66180   1.00
O2       0.66180    0.27350    0.72650   1.00
O2       0.72650    0.33820    0.72650   1.00
O2       0.72650    0.16180    0.77350   1.00
O2       0.66180    0.22650    0.77350   1.00
O2       0.72650    0.22650    0.83820   1.00
O2       0.83820    0.27350    0.77350   1.00
O2       0.77350    0.33820    0.77350   1.00
O2       0.77350    0.27350    0.83820   1.00
C1       0.75000    0.25000    0.64480   1.00
C1       0.75000    0.14480    0.75000   1.00
C1       0.85520    0.25000    0.75000   1.00
C1       0.64480    0.25000    0.75000   1.00
C1       0.75000    0.35520    0.75000   1.00
C1       0.75000    0.25000    0.85520   1.00
O1       0.25000    0.75000    0.75000   1.00
Zn1      0.28280    0.71720    0.71720   1.00
Zn1      0.21720    0.78280    0.71720   1.00
Zn1      0.21720    0.71720    0.78280   1.00
Zn1      0.28280    0.78280    0.78280   1.00
O2       0.27350    0.72650    0.66180   1.00
O2       0.27350    0.66180    0.72650   1.00
O2       0.33820    0.72650    0.72650   1.00
O2       0.22650    0.77350    0.66180   1.00
O2       0.16180    0.77350    0.72650   1.00
O2       0.22650    0.83820    0.72650   1.00
O2       0.22650    0.66180    0.77350   1.00
O2       0.16180    0.72650    0.77350   1.00
O2       0.22650    0.72650    0.83820   1.00
O2       0.33820    0.77350    0.77350   1.00
O2       0.27350    0.83820    0.77350   1.00
O2       0.27350    0.77350    0.83820   1.00
C1       0.25000    0.75000    0.64480   1.00
C1       0.25000    0.64480    0.75000   1.00
C1       0.35520    0.75000    0.75000   1.00
C1       0.14480    0.75000    0.75000   1.00
C1       0.25000    0.85520    0.75000   1.00
C1       0.25000    0.75000    0.85520   1.00
C5       0.87591    0.76670    1.13227   1.00
H2       0.86261    0.79198    1.14755   1.00
H2       0.89690    0.77924    1.11099   1.00
C5       0.89749    0.74065    1.16219   1.00
H2       0.92690    0.75271    1.16890   1.00
H2       0.90082    0.71057    1.15040   1.00
O_3      0.77115    0.68248    0.98000   1.00
C4       0.74975    0.75037    1.02100   1.00
C3c      0.78288    0.76141    1.04243   1.00
H1       0.80908    0.77027    1.02725   1.00
C3d      0.71573    0.73947    1.04135   1.00
C3       0.78301    0.76071    1.08354   1.00
O2       0.81476    0.77641    1.10248   1.00
C3       0.71600    0.73802    1.08227   1.00
H1       0.68968    0.72815    1.09657   1.00
C2       0.74940    0.74869    1.10439   1.00
C5       0.74095    0.65448    0.97879   1.00
H2       0.73380    0.64542    0.94838   1.00
H2       0.71380    0.66591    0.99266   1.00
C5       0.75480    0.61883    1.00122   1.00
H2       0.76299    0.62808    1.03129   1.00
H2       0.78170    0.60745    0.98691   1.00
C5       0.72304    0.58732    1.00254   1.00
H2       0.71452    0.57814    0.97260   1.00
H2       0.69665    0.59821    1.01803   1.00
H2       0.73399    0.56116    1.01830   1.00
C5       0.65916    0.75711    1.01105   1.00
C5       0.84224    0.74675    1.11070   1.00
H2       0.67448    0.77741    0.99088   1.00
H2       0.64918    0.77387    1.03712   1.00
H2       0.85293    0.73338    1.08300   1.00
H2       0.82968    0.72277    1.12895   1.00
H2       0.88140    0.73938    1.19055   1.00
H2       0.61758    0.78314    0.94250   1.00
H2       0.59331    0.79676    0.98766   1.00
C2       0.74893    0.74766    0.89605   1.00
C3       0.74010    0.78263    0.91597   1.00
O2       0.72194    0.81298    0.89674   1.00
C3       0.75979    0.71459    0.91826   1.00
H1       0.76770    0.68768    0.90385   1.00
C3a      0.74130    0.78351    0.95713   1.00
H1       0.73231    0.80984    0.97202   1.00
C3b      0.75974    0.71522    0.95922   1.00
C4       0.75038    0.74982    0.97900   1.00
O_3      0.68334    0.72553    1.02167   1.00
C5       0.74933    0.84221    0.88720   1.00
H2       0.76374    0.85408    0.91391   1.00
C5       0.72691    0.87493    0.86666   1.00
H2       0.77227    0.83062    0.86726   1.00
H2       0.71207    0.89298    0.88923   1.00
H2       0.70343    0.86104    0.84899   1.00
C5       0.75322    0.90060    0.84069   1.00
H2       0.77821    0.91171    0.85811   1.00
H2       0.73660    0.92592    0.82891   1.00
H2       0.76440    0.88396    0.81494   1.00
C5       0.62368    0.74038    0.99020   1.00
H2       0.60483    0.72562    1.01218   1.00
H2       0.63389    0.71743    0.96955   1.00
C5       0.60071    0.77198    0.96803   1.00
H2       0.57299    0.75957    0.95666   1.00
C5       0.76670    1.13227    0.87591   1.00
H2       0.79198    1.14755    0.86261   1.00
H2       0.77924    1.11099    0.89690   1.00
C5       0.74065    1.16219    0.89749   1.00
H2       0.75271    1.16890    0.92690   1.00
H2       0.71057    1.15040    0.90082   1.00
O_3      0.68248    0.98000    0.77115   1.00
C4       0.75037    1.02100    0.74975   1.00
C3c      0.76141    1.04243    0.78288   1.00
H1       0.77027    1.02725    0.80908   1.00
C3d      0.73947    1.04135    0.71573   1.00
C3       0.76071    1.08354    0.78301   1.00
O2       0.77641    1.10248    0.81476   1.00
C3       0.73802    1.08227    0.71600   1.00
H1       0.72815    1.09657    0.68968   1.00
C2       0.74869    1.10439    0.74940   1.00
C5       0.65448    0.97879    0.74095   1.00
H2       0.64542    0.94838    0.73380   1.00
H2       0.66591    0.99266    0.71380   1.00
C5       0.61883    1.00122    0.75480   1.00
H2       0.62808    1.03129    0.76299   1.00
H2       0.60745    0.98691    0.78170   1.00
C5       0.58732    1.00254    0.72304   1.00
H2       0.57814    0.97260    0.71452   1.00
H2       0.59821    1.01803    0.69665   1.00
H2       0.56116    1.01830    0.73399   1.00
C5       0.75711    1.01105    0.65916   1.00
C5       0.74675    1.11070    0.84224   1.00
H2       0.77741    0.99088    0.67448   1.00
H2       0.77387    1.03712    0.64918   1.00
H2       0.73338    1.08300    0.85293   1.00
H2       0.72277    1.12895    0.82968   1.00
H2       0.73938    1.19055    0.88140   1.00
H2       0.78314    0.94250    0.61758   1.00
H2       0.79676    0.98766    0.59331   1.00
C2       0.74766    0.89605    0.74893   1.00
C3       0.78263    0.91597    0.74010   1.00
O2       0.81298    0.89674    0.72194   1.00
C3       0.71459    0.91826    0.75979   1.00
H1       0.68768    0.90385    0.76770   1.00
C3a      0.78351    0.95713    0.74130   1.00
H1       0.80984    0.97202    0.73231   1.00
C3b      0.71522    0.95922    0.75974   1.00
C4       0.74982    0.97900    0.75038   1.00
O_3      0.72553    1.02167    0.68334   1.00
C5       0.84221    0.88720    0.74933   1.00
H2       0.85408    0.91391    0.76374   1.00
C5       0.87493    0.86666    0.72691   1.00
H2       0.83062    0.86726    0.77227   1.00
H2       0.89298    0.88923    0.71207   1.00
H2       0.86104    0.84899    0.70343   1.00
C5       0.90060    0.84069    0.75322   1.00
H2       0.91171    0.85811    0.77821   1.00
H2       0.92592    0.82891    0.73660   1.00
H2       0.88396    0.81494    0.76440   1.00
C5       0.74038    0.99020    0.62368   1.00
H2       0.72562    1.01218    0.60483   1.00
H2       0.71743    0.96955    0.63389   1.00
C5       0.77198    0.96803    0.60071   1.00
H2       0.75957    0.95666    0.57299   1.00
C5       0.36773    0.87591    0.73330   1.00
H2       0.35245    0.86261    0.70802   1.00
H2       0.38901    0.89690    0.72076   1.00
C5       0.33781    0.89749    0.75935   1.00
H2       0.33110    0.92690    0.74729   1.00
H2       0.34960    0.90082    0.78943   1.00
O_3      0.52000    0.77115    0.81752   1.00
C4       0.47900    0.74975    0.74963   1.00
C3c      0.45757    0.78288    0.73859   1.00
H1       0.47275    0.80908    0.72973   1.00
C3d      0.45865    0.71573    0.76053   1.00
C3       0.41646    0.78301    0.73929   1.00
O2       0.39752    0.81476    0.72359   1.00
C3       0.41773    0.71600    0.76198   1.00
H1       0.40343    0.68968    0.77185   1.00
C2       0.39561    0.74940    0.75131   1.00
C5       0.52121    0.74095    0.84552   1.00
H2       0.55162    0.73380    0.85458   1.00
H2       0.50734    0.71380    0.83409   1.00
C5       0.49878    0.75480    0.88117   1.00
H2       0.46871    0.76299    0.87192   1.00
H2       0.51309    0.78170    0.89255   1.00
C5       0.49746    0.72304    0.91268   1.00
H2       0.52740    0.71452    0.92186   1.00
H2       0.48197    0.69665    0.90179   1.00
H2       0.48170    0.73399    0.93884   1.00
C5       0.48895    0.65916    0.74289   1.00
C5       0.38930    0.84224    0.75325   1.00
H2       0.50912    0.67448    0.72259   1.00
H2       0.46288    0.64918    0.72613   1.00
H2       0.41700    0.85293    0.76662   1.00
H2       0.37105    0.82968    0.77723   1.00
H2       0.30945    0.88140    0.76062   1.00
H2       0.55750    0.61758    0.71686   1.00
H2       0.51234    0.59331    0.70324   1.00
C2       0.60395    0.74893    0.75234   1.00
C3       0.58403    0.74010    0.71737   1.00
O2       0.60326    0.72194    0.68702   1.00
C3       0.58174    0.75979    0.78541   1.00
H1       0.59615    0.76770    0.81232   1.00
C3a      0.54287    0.74130    0.71649   1.00
H1       0.52798    0.73231    0.69016   1.00
C3b      0.54078    0.75974    0.78478   1.00
C4       0.52100    0.75038    0.75018   1.00
O_3      0.47833    0.68334    0.77447   1.00
C5       0.61280    0.74933    0.65779   1.00
H2       0.58609    0.76374    0.64592   1.00
C5       0.63334    0.72691    0.62507   1.00
H2       0.63274    0.77227    0.66938   1.00
H2       0.61077    0.71207    0.60702   1.00
H2       0.65101    0.70343    0.63896   1.00
C5       0.65931    0.75322    0.59940   1.00
H2       0.64189    0.77821    0.58829   1.00
H2       0.67109    0.73660    0.57408   1.00
H2       0.68506    0.76440    0.61604   1.00
C5       0.50980    0.62368    0.75962   1.00
H2       0.48782    0.60483    0.77438   1.00
H2       0.53045    0.63389    0.78257   1.00
C5       0.53197    0.60071    0.72802   1.00
H2       0.54334    0.57299    0.74043   1.00
C5       1.13227    0.87591    0.76670   1.00
H2       1.14755    0.86261    0.79198   1.00
H2       1.11099    0.89690    0.77924   1.00
C5       1.16219    0.89749    0.74065   1.00
H2       1.16890    0.92690    0.75271   1.00
H2       1.15040    0.90082    0.71057   1.00
O_3      0.98000    0.77115    0.68248   1.00
C4       1.02100    0.74975    0.75037   1.00
C3c      1.04243    0.78288    0.76141   1.00
H1       1.02725    0.80908    0.77027   1.00
C3d      1.04135    0.71573    0.73947   1.00
C3       1.08354    0.78301    0.76071   1.00
O2       1.10248    0.81476    0.77641   1.00
C3       1.08227    0.71600    0.73802   1.00
H1       1.09657    0.68968    0.72815   1.00
C2       1.10439    0.74940    0.74869   1.00
C5       0.97879    0.74095    0.65448   1.00
H2       0.94838    0.73380    0.64542   1.00
H2       0.99266    0.71380    0.66591   1.00
C5       1.00122    0.75480    0.61883   1.00
H2       1.03129    0.76299    0.62808   1.00
H2       0.98691    0.78170    0.60745   1.00
C5       1.00254    0.72304    0.58732   1.00
H2       0.97260    0.71452    0.57814   1.00
H2       1.01803    0.69665    0.59821   1.00
H2       1.01830    0.73399    0.56116   1.00
C5       1.01105    0.65916    0.75711   1.00
C5       1.11070    0.84224    0.74675   1.00
H2       0.99088    0.67448    0.77741   1.00
H2       1.03712    0.64918    0.77387   1.00
H2       1.08300    0.85293    0.73338   1.00
H2       1.12895    0.82968    0.72277   1.00
H2       1.19055    0.88140    0.73938   1.00
H2       0.94250    0.61758    0.78314   1.00
H2       0.98766    0.59331    0.79676   1.00
C2       0.89605    0.74893    0.74766   1.00
C3       0.91597    0.74010    0.78263   1.00
O2       0.89674    0.72194    0.81298   1.00
C3       0.91826    0.75979    0.71459   1.00
H1       0.90385    0.76770    0.68768   1.00
C3a      0.95713    0.74130    0.78351   1.00
H1       0.97202    0.73231    0.80984   1.00
C3b      0.95922    0.75974    0.71522   1.00
C4       0.97900    0.75038    0.74982   1.00
O_3      1.02167    0.68334    0.72553   1.00
C5       0.88720    0.74933    0.84221   1.00
H2       0.91391    0.76374    0.85408   1.00
C5       0.86666    0.72691    0.87493   1.00
H2       0.86726    0.77227    0.83062   1.00
H2       0.88923    0.71207    0.89298   1.00
H2       0.84899    0.70343    0.86104   1.00
C5       0.84069    0.75322    0.90060   1.00
H2       0.85811    0.77821    0.91171   1.00
H2       0.82891    0.73660    0.92592   1.00
H2       0.81494    0.76440    0.88396   1.00
C5       0.99020    0.62368    0.74038   1.00
H2       1.01218    0.60483    0.72562   1.00
H2       0.96955    0.63389    0.71743   1.00
C5       0.96803    0.60071    0.77198   1.00
H2       0.95666    0.57299    0.75957   1.00
C5       0.73330    0.36773    0.87591   1.00
H2       0.70802    0.35245    0.86261   1.00
H2       0.72076    0.38901    0.89690   1.00
C5       0.75935    0.33781    0.89749   1.00
H2       0.74729    0.33110    0.92690   1.00
H2       0.78943    0.34960    0.90082   1.00
O_3      0.81752    0.52000    0.77115   1.00
C4       0.74963    0.47900    0.74975   1.00
C3c      0.73859    0.45757    0.78288   1.00
H1       0.72973    0.47275    0.80908   1.00
C3d      0.76053    0.45865    0.71573   1.00
C3       0.73929    0.41646    0.78301   1.00
O2       0.72359    0.39752    0.81476   1.00
C3       0.76198    0.41773    0.71600   1.00
H1       0.77185    0.40343    0.68968   1.00
C2       0.75131    0.39561    0.74940   1.00
C5       0.84552    0.52121    0.74095   1.00
H2       0.85458    0.55162    0.73380   1.00
H2       0.83409    0.50734    0.71380   1.00
C5       0.88117    0.49878    0.75480   1.00
H2       0.87192    0.46871    0.76299   1.00
H2       0.89255    0.51309    0.78170   1.00
C5       0.91268    0.49746    0.72304   1.00
H2       0.92186    0.52740    0.71452   1.00
H2       0.90179    0.48197    0.69665   1.00
H2       0.93884    0.48170    0.73399   1.00
C5       0.74289    0.48895    0.65916   1.00
C5       0.75325    0.38930    0.84224   1.00
H2       0.72259    0.50912    0.67448   1.00
H2       0.72613    0.46288    0.64918   1.00
H2       0.76662    0.41700    0.85293   1.00
H2       0.77723    0.37105    0.82968   1.00
H2       0.76062    0.30945    0.88140   1.00
H2       0.71686    0.55750    0.61758   1.00
H2       0.70324    0.51234    0.59331   1.00
C2       0.75234    0.60395    0.74893   1.00
C3       0.71737    0.58403    0.74010   1.00
O2       0.68702    0.60326    0.72194   1.00
C3       0.78541    0.58174    0.75979   1.00
H1       0.81232    0.59615    0.76770   1.00
C3a      0.71649    0.54287    0.74130   1.00
H1       0.69016    0.52798    0.73231   1.00
C3b      0.78478    0.54078    0.75974   1.00
C4       0.75018    0.52100    0.75038   1.00
O_3      0.77447    0.47833    0.68334   1.00
C5       0.65779    0.61280    0.74933   1.00
H2       0.64592    0.58609    0.76374   1.00
C5       0.62507    0.63334    0.72691   1.00
H2       0.66938    0.63274    0.77227   1.00
H2       0.60702    0.61077    0.71207   1.00
H2       0.63896    0.65101    0.70343   1.00
C5       0.59940    0.65931    0.75322   1.00
H2       0.58829    0.64189    0.77821   1.00
H2       0.57408    0.67109    0.73660   1.00
H2       0.61604    0.68506    0.76440   1.00
C5       0.75962    0.50980    0.62368   1.00
H2       0.77438    0.48782    0.60483   1.00
H2       0.78257    0.53045    0.63389   1.00
C5       0.72802    0.53197    0.60071   1.00
H2       0.74043    0.54334    0.57299   1.00
C5       0.87591    0.73330    0.36773   1.00
H2       0.86261    0.70802    0.35245   1.00
H2       0.89690    0.72076    0.38901   1.00
C5       0.89749    0.75935    0.33781   1.00
H2       0.92690    0.74729    0.33110   1.00
H2       0.90082    0.78943    0.34960   1.00
O_3      0.77115    0.81752    0.52000   1.00
C4       0.74975    0.74963    0.47900   1.00
C3c      0.78288    0.73859    0.45757   1.00
H1       0.80908    0.72973    0.47275   1.00
C3d      0.71573    0.76053    0.45865   1.00
C3       0.78301    0.73929    0.41646   1.00
O2       0.81476    0.72359    0.39752   1.00
C3       0.71600    0.76198    0.41773   1.00
H1       0.68968    0.77185    0.40343   1.00
C2       0.74940    0.75131    0.39561   1.00
C5       0.74095    0.84552    0.52121   1.00
H2       0.73380    0.85458    0.55162   1.00
H2       0.71380    0.83409    0.50734   1.00
C5       0.75480    0.88117    0.49878   1.00
H2       0.76299    0.87192    0.46871   1.00
H2       0.78170    0.89255    0.51309   1.00
C5       0.72304    0.91268    0.49746   1.00
H2       0.71452    0.92186    0.52740   1.00
H2       0.69665    0.90179    0.48197   1.00
H2       0.73399    0.93884    0.48170   1.00
C5       0.65916    0.74289    0.48895   1.00
C5       0.84224    0.75325    0.38930   1.00
H2       0.67448    0.72259    0.50912   1.00
H2       0.64918    0.72613    0.46288   1.00
H2       0.85293    0.76662    0.41700   1.00
H2       0.82968    0.77723    0.37105   1.00
H2       0.88140    0.76062    0.30945   1.00
H2       0.61758    0.71686    0.55750   1.00
H2       0.59331    0.70324    0.51234   1.00
C2       0.74893    0.75234    0.60395   1.00
C3       0.74010    0.71737    0.58403   1.00
O2       0.72194    0.68702    0.60326   1.00
C3       0.75979    0.78541    0.58174   1.00
H1       0.76770    0.81232    0.59615   1.00
C3a      0.74130    0.71649    0.54287   1.00
H1       0.73231    0.69016    0.52798   1.00
C3b      0.75974    0.78478    0.54078   1.00
C4       0.75038    0.75018    0.52100   1.00
O_3      0.68334    0.77447    0.47833   1.00
C5       0.74933    0.65779    0.61280   1.00
H2       0.76374    0.64592    0.58609   1.00
C5       0.72691    0.62507    0.63334   1.00
H2       0.77227    0.66938    0.63274   1.00
H2       0.71207    0.60702    0.61077   1.00
H2       0.70343    0.63896    0.65101   1.00
C5       0.75322    0.59940    0.65931   1.00
H2       0.77821    0.58829    0.64189   1.00
H2       0.73660    0.57408    0.67109   1.00
H2       0.76440    0.61604    0.68506   1.00
C5       0.62368    0.75962    0.50980   1.00
H2       0.60483    0.77438    0.48782   1.00
H2       0.63389    0.78257    0.53045   1.00
C5       0.60071    0.72802    0.53197   1.00
H2       0.57299    0.74043    0.54334   1.00
C5       0.37591    0.26670    1.13227   1.00
H2       0.36261    0.29198    1.14755   1.00
H2       0.39690    0.27924    1.11099   1.00
C5       0.39749    0.24065    1.16219   1.00
H2       0.42690    0.25271    1.16890   1.00
H2       0.40082    0.21057    1.15040   1.00
O_3      0.27115    0.18248    0.98000   1.00
C4       0.24975    0.25037    1.02100   1.00
C3c      0.28288    0.26141    1.04243   1.00
H1       0.30908    0.27027    1.02725   1.00
C3d      0.21573    0.23947    1.04135   1.00
C3       0.28301    0.26071    1.08354   1.00
O2       0.31476    0.27641    1.10248   1.00
C3       0.21600    0.23802    1.08227   1.00
H1       0.18968    0.22815    1.09657   1.00
C2       0.24940    0.24869    1.10439   1.00
C5       0.24095    0.15448    0.97879   1.00
H2       0.23380    0.14542    0.94838   1.00
H2       0.21380    0.16591    0.99266   1.00
C5       0.25480    0.11883    1.00122   1.00
H2       0.26299    0.12808    1.03129   1.00
H2       0.28170    0.10745    0.98691   1.00
C5       0.22304    0.08732    1.00254   1.00
H2       0.21452    0.07814    0.97260   1.00
H2       0.19665    0.09821    1.01803   1.00
H2       0.23399    0.06116    1.01830   1.00
C5       0.15916    0.25711    1.01105   1.00
C5       0.34224    0.24675    1.11070   1.00
H2       0.17448    0.27741    0.99088   1.00
H2       0.14918    0.27387    1.03712   1.00
H2       0.35293    0.23338    1.08300   1.00
H2       0.32968    0.22277    1.12895   1.00
H2       0.38140    0.23938    1.19055   1.00
H2       0.11758    0.28314    0.94250   1.00
H2       0.09331    0.29676    0.98766   1.00
C2       0.24893    0.24766    0.89605   1.00
C3       0.24010    0.28263    0.91597   1.00
O2       0.22194    0.31298    0.89674   1.00
C3       0.25979    0.21459    0.91826   1.00
H1       0.26770    0.18768    0.90385   1.00
C3a      0.24130    0.28351    0.95713   1.00
H1       0.23231    0.30984    0.97202   1.00
C3b      0.25974    0.21522    0.95922   1.00
C4       0.25038    0.24982    0.97900   1.00
O_3      0.18334    0.22553    1.02167   1.00
C5       0.24933    0.34221    0.88720   1.00
H2       0.26374    0.35408    0.91391   1.00
C5       0.22691    0.37493    0.86666   1.00
H2       0.27227    0.33062    0.86726   1.00
H2       0.21207    0.39298    0.88923   1.00
H2       0.20343    0.36104    0.84899   1.00
C5       0.25322    0.40060    0.84069   1.00
H2       0.27821    0.41171    0.85811   1.00
H2       0.23660    0.42592    0.82891   1.00
H2       0.26440    0.38396    0.81494   1.00
C5       0.12368    0.24038    0.99020   1.00
H2       0.10483    0.22562    1.01218   1.00
H2       0.13389    0.21743    0.96955   1.00
C5       0.10071    0.27198    0.96803   1.00
H2       0.07299    0.25957    0.95666   1.00
C5       0.26670    0.63227    0.87591   1.00
H2       0.29198    0.64755    0.86261   1.00
H2       0.27924    0.61099    0.89690   1.00
C5       0.24065    0.66219    0.89749   1.00
H2       0.25271    0.66890    0.92690   1.00
H2       0.21057    0.65040    0.90082   1.00
O_3      0.18248    0.48000    0.77115   1.00
C4       0.25037    0.52100    0.74975   1.00
C3c      0.26141    0.54243    0.78288   1.00
H1       0.27027    0.52725    0.80908   1.00
C3d      0.23947    0.54135    0.71573   1.00
C3       0.26071    0.58354    0.78301   1.00
O2       0.27641    0.60248    0.81476   1.00
C3       0.23802    0.58227    0.71600   1.00
H1       0.22815    0.59657    0.68968   1.00
C2       0.24869    0.60439    0.74940   1.00
C5       0.15448    0.47879    0.74095   1.00
H2       0.14542    0.44838    0.73380   1.00
H2       0.16591    0.49266    0.71380   1.00
C5       0.11883    0.50122    0.75480   1.00
H2       0.12808    0.53129    0.76299   1.00
H2       0.10745    0.48691    0.78170   1.00
C5       0.08732    0.50254    0.72304   1.00
H2       0.07814    0.47260    0.71452   1.00
H2       0.09821    0.51803    0.69665   1.00
H2       0.06116    0.51830    0.73399   1.00
C5       0.25711    0.51105    0.65916   1.00
C5       0.24675    0.61070    0.84224   1.00
H2       0.27741    0.49088    0.67448   1.00
H2       0.27387    0.53712    0.64918   1.00
H2       0.23338    0.58300    0.85293   1.00
H2       0.22277    0.62895    0.82968   1.00
H2       0.23938    0.69055    0.88140   1.00
H2       0.28314    0.44250    0.61758   1.00
H2       0.29676    0.48766    0.59331   1.00
C2       0.24766    0.39605    0.74893   1.00
C3       0.28263    0.41597    0.74010   1.00
O2       0.31298    0.39674    0.72194   1.00
C3       0.21459    0.41826    0.75979   1.00
H1       0.18768    0.40385    0.76770   1.00
C3a      0.28351    0.45713    0.74130   1.00
H1       0.30984    0.47202    0.73231   1.00
C3b      0.21522    0.45922    0.75974   1.00
C4       0.24982    0.47900    0.75038   1.00
O_3      0.22553    0.52167    0.68334   1.00
C5       0.34221    0.38720    0.74933   1.00
H2       0.35408    0.41391    0.76374   1.00
C5       0.37493    0.36666    0.72691   1.00
H2       0.33062    0.36726    0.77227   1.00
H2       0.39298    0.38923    0.71207   1.00
H2       0.36104    0.34899    0.70343   1.00
C5       0.40060    0.34069    0.75322   1.00
H2       0.41171    0.35811    0.77821   1.00
H2       0.42592    0.32891    0.73660   1.00
H2       0.38396    0.31494    0.76440   1.00
C5       0.24038    0.49020    0.62368   1.00
H2       0.22562    0.51218    0.60483   1.00
H2       0.21743    0.46955    0.63389   1.00
C5       0.27198    0.46803    0.60071   1.00
H2       0.25957    0.45666    0.57299   1.00
C5       -0.13227   0.37591    0.73330   1.00
H2       -0.14755   0.36261    0.70802   1.00
H2       -0.11099   0.39690    0.72076   1.00
C5       -0.16219   0.39749    0.75935   1.00
H2       -0.16890   0.42690    0.74729   1.00
H2       -0.15040   0.40082    0.78943   1.00
O_3      0.02000    0.27115    0.81752   1.00
C4       -0.02100   0.24975    0.74963   1.00
C3c      -0.04243   0.28288    0.73859   1.00
H1       -0.02725   0.30908    0.72973   1.00
C3d      -0.04135   0.21573    0.76053   1.00
C3       -0.08354   0.28301    0.73929   1.00
O2       -0.10248   0.31476    0.72359   1.00
C3       -0.08227   0.21600    0.76198   1.00
H1       -0.09657   0.18968    0.77185   1.00
C2       -0.10439   0.24940    0.75131   1.00
C5       0.02121    0.24095    0.84552   1.00
H2       0.05162    0.23380    0.85458   1.00
H2       0.00734    0.21380    0.83409   1.00
C5       -0.00122   0.25480    0.88117   1.00
H2       -0.03129   0.26299    0.87192   1.00
H2       0.01309    0.28170    0.89255   1.00
C5       -0.00254   0.22304    0.91268   1.00
H2       0.02740    0.21452    0.92186   1.00
H2       -0.01803   0.19665    0.90179   1.00
H2       -0.01830   0.23399    0.93884   1.00
C5       -0.01105   0.15916    0.74289   1.00
C5       -0.11070   0.34224    0.75325   1.00
H2       0.00912    0.17448    0.72259   1.00
H2       -0.03712   0.14918    0.72613   1.00
H2       -0.08300   0.35293    0.76662   1.00
H2       -0.12895   0.32968    0.77723   1.00
H2       -0.19055   0.38140    0.76062   1.00
H2       0.05750    0.11758    0.71686   1.00
H2       0.01234    0.09331    0.70324   1.00
C2       0.10395    0.24893    0.75234   1.00
C3       0.08403    0.24010    0.71737   1.00
O2       0.10326    0.22194    0.68702   1.00
C3       0.08174    0.25979    0.78541   1.00
H1       0.09615    0.26770    0.81232   1.00
C3a      0.04287    0.24130    0.71649   1.00
H1       0.02798    0.23231    0.69016   1.00
C3b      0.04078    0.25974    0.78478   1.00
C4       0.02100    0.25038    0.75018   1.00
O_3      -0.02167   0.18334    0.77447   1.00
C5       0.11280    0.24933    0.65779   1.00
H2       0.08609    0.26374    0.64592   1.00
C5       0.13334    0.22691    0.62507   1.00
H2       0.13274    0.27227    0.66938   1.00
H2       0.11077    0.21207    0.60702   1.00
H2       0.15101    0.20343    0.63896   1.00
C5       0.15931    0.25322    0.59940   1.00
H2       0.14189    0.27821    0.58829   1.00
H2       0.17109    0.23660    0.57408   1.00
H2       0.18506    0.26440    0.61604   1.00
C5       0.00980    0.12368    0.75962   1.00
H2       -0.01218   0.10483    0.77438   1.00
H2       0.03045    0.13389    0.78257   1.00
C5       0.03197    0.10071    0.72802   1.00
H2       0.04334    0.07299    0.74043   1.00
C5       0.63227    0.37591    0.76670   1.00
H2       0.64755    0.36261    0.79198   1.00
H2       0.61099    0.39690    0.77924   1.00
C5       0.66219    0.39749    0.74065   1.00
H2       0.66890    0.42690    0.75271   1.00
H2       0.65040    0.40082    0.71057   1.00
O_3      0.48000    0.27115    0.68248   1.00
C4       0.52100    0.24975    0.75037   1.00
C3c      0.54243    0.28288    0.76141   1.00
H1       0.52725    0.30908    0.77027   1.00
C3d      0.54135    0.21573    0.73947   1.00
C3       0.58354    0.28301    0.76071   1.00
O2       0.60248    0.31476    0.77641   1.00
C3       0.58227    0.21600    0.73802   1.00
H1       0.59657    0.18968    0.72815   1.00
C2       0.60439    0.24940    0.74869   1.00
C5       0.47879    0.24095    0.65448   1.00
H2       0.44838    0.23380    0.64542   1.00
H2       0.49266    0.21380    0.66591   1.00
C5       0.50122    0.25480    0.61883   1.00
H2       0.53129    0.26299    0.62808   1.00
H2       0.48691    0.28170    0.60745   1.00
C5       0.50254    0.22304    0.58732   1.00
H2       0.47260    0.21452    0.57814   1.00
H2       0.51803    0.19665    0.59821   1.00
H2       0.51830    0.23399    0.56116   1.00
C5       0.51105    0.15916    0.75711   1.00
C5       0.61070    0.34224    0.74675   1.00
H2       0.49088    0.17448    0.77741   1.00
H2       0.53712    0.14918    0.77387   1.00
H2       0.58300    0.35293    0.73338   1.00
H2       0.62895    0.32968    0.72277   1.00
H2       0.69055    0.38140    0.73938   1.00
H2       0.44250    0.11758    0.78314   1.00
H2       0.48766    0.09331    0.79676   1.00
C2       0.39605    0.24893    0.74766   1.00
C3       0.41597    0.24010    0.78263   1.00
O2       0.39674    0.22194    0.81298   1.00
C3       0.41826    0.25979    0.71459   1.00
H1       0.40385    0.26770    0.68768   1.00
C3a      0.45713    0.24130    0.78351   1.00
H1       0.47202    0.23231    0.80984   1.00
C3b      0.45922    0.25974    0.71522   1.00
C4       0.47900    0.25038    0.74982   1.00
O_3      0.52167    0.18334    0.72553   1.00
C5       0.38720    0.24933    0.84221   1.00
H2       0.41391    0.26374    0.85408   1.00
C5       0.36666    0.22691    0.87493   1.00
H2       0.36726    0.27227    0.83062   1.00
H2       0.38923    0.21207    0.89298   1.00
H2       0.34899    0.20343    0.86104   1.00
C5       0.34069    0.25322    0.90060   1.00
H2       0.35811    0.27821    0.91171   1.00
H2       0.32891    0.23660    0.92592   1.00
H2       0.31494    0.26440    0.88396   1.00
C5       0.49020    0.12368    0.74038   1.00
H2       0.51218    0.10483    0.72562   1.00
H2       0.46955    0.13389    0.71743   1.00
C5       0.46803    0.10071    0.77198   1.00
H2       0.45666    0.07299    0.75957   1.00
C5       0.23330    -0.13227   0.87591   1.00
H2       0.20802    -0.14755   0.86261   1.00
H2       0.22076    -0.11099   0.89690   1.00
C5       0.25935    -0.16219   0.89749   1.00
H2       0.24729    -0.16890   0.92690   1.00
H2       0.28943    -0.15040   0.90082   1.00
O_3      0.31752    0.02000    0.77115   1.00
C4       0.24963    -0.02100   0.74975   1.00
C3c      0.23859    -0.04243   0.78288   1.00
H1       0.22973    -0.02725   0.80908   1.00
C3d      0.26053    -0.04135   0.71573   1.00
C3       0.23929    -0.08354   0.78301   1.00
O2       0.22359    -0.10248   0.81476   1.00
C3       0.26198    -0.08227   0.71600   1.00
H1       0.27185    -0.09657   0.68968   1.00
C2       0.25131    -0.10439   0.74940   1.00
C5       0.34552    0.02121    0.74095   1.00
H2       0.35458    0.05162    0.73380   1.00
H2       0.33409    0.00734    0.71380   1.00
C5       0.38117    -0.00122   0.75480   1.00
H2       0.37192    -0.03129   0.76299   1.00
H2       0.39255    0.01309    0.78170   1.00
C5       0.41268    -0.00254   0.72304   1.00
H2       0.42186    0.02740    0.71452   1.00
H2       0.40179    -0.01803   0.69665   1.00
H2       0.43884    -0.01830   0.73399   1.00
C5       0.24289    -0.01105   0.65916   1.00
C5       0.25325    -0.11070   0.84224   1.00
H2       0.22259    0.00912    0.67448   1.00
H2       0.22613    -0.03712   0.64918   1.00
H2       0.26662    -0.08300   0.85293   1.00
H2       0.27723    -0.12895   0.82968   1.00
H2       0.26062    -0.19055   0.88140   1.00
H2       0.21686    0.05750    0.61758   1.00
H2       0.20324    0.01234    0.59331   1.00
C2       0.25234    0.10395    0.74893   1.00
C3       0.21737    0.08403    0.74010   1.00
O2       0.18702    0.10326    0.72194   1.00
C3       0.28541    0.08174    0.75979   1.00
H1       0.31232    0.09615    0.76770   1.00
C3a      0.21649    0.04287    0.74130   1.00
H1       0.19016    0.02798    0.73231   1.00
C3b      0.28478    0.04078    0.75974   1.00
C4       0.25018    0.02100    0.75038   1.00
O_3      0.27447    -0.02167   0.68334   1.00
C5       0.15779    0.11280    0.74933   1.00
H2       0.14592    0.08609    0.76374   1.00
C5       0.12507    0.13334    0.72691   1.00
H2       0.16938    0.13274    0.77227   1.00
H2       0.10702    0.11077    0.71207   1.00
H2       0.13896    0.15101    0.70343   1.00
C5       0.09940    0.15931    0.75322   1.00
H2       0.08829    0.14189    0.77821   1.00
H2       0.07408    0.17109    0.73660   1.00
H2       0.11604    0.18506    0.76440   1.00
C5       0.25962    0.00980    0.62368   1.00
H2       0.27438    -0.01218   0.60483   1.00
H2       0.28257    0.03045    0.63389   1.00
C5       0.22802    0.03197    0.60071   1.00
H2       0.24043    0.04334    0.57299   1.00
C5       0.37591    0.23330    0.36773   1.00
H2       0.36261    0.20802    0.35245   1.00
H2       0.39690    0.22076    0.38901   1.00
C5       0.39749    0.25935    0.33781   1.00
H2       0.42690    0.24729    0.33110   1.00
H2       0.40082    0.28943    0.34960   1.00
O_3      0.27115    0.31752    0.52000   1.00
C4       0.24975    0.24963    0.47900   1.00
C3c      0.28288    0.23859    0.45757   1.00
H1       0.30908    0.22973    0.47275   1.00
C3d      0.21573    0.26053    0.45865   1.00
C3       0.28301    0.23929    0.41646   1.00
O2       0.31476    0.22359    0.39752   1.00
C3       0.21600    0.26198    0.41773   1.00
H1       0.18968    0.27185    0.40343   1.00
C2       0.24940    0.25131    0.39561   1.00
C5       0.24095    0.34552    0.52121   1.00
H2       0.23380    0.35458    0.55162   1.00
H2       0.21380    0.33409    0.50734   1.00
C5       0.25480    0.38117    0.49878   1.00
H2       0.26299    0.37192    0.46871   1.00
H2       0.28170    0.39255    0.51309   1.00
C5       0.22304    0.41268    0.49746   1.00
H2       0.21452    0.42186    0.52740   1.00
H2       0.19665    0.40179    0.48197   1.00
H2       0.23399    0.43884    0.48170   1.00
C5       0.15916    0.24289    0.48895   1.00
C5       0.34224    0.25325    0.38930   1.00
H2       0.17448    0.22259    0.50912   1.00
H2       0.14918    0.22613    0.46288   1.00
H2       0.35293    0.26662    0.41700   1.00
H2       0.32968    0.27723    0.37105   1.00
H2       0.38140    0.26062    0.30945   1.00
H2       0.11758    0.21686    0.55750   1.00
H2       0.09331    0.20324    0.51234   1.00
C2       0.24893    0.25234    0.60395   1.00
C3       0.24010    0.21737    0.58403   1.00
O2       0.22194    0.18702    0.60326   1.00
C3       0.25979    0.28541    0.58174   1.00
H1       0.26770    0.31232    0.59615   1.00
C3a      0.24130    0.21649    0.54287   1.00
H1       0.23231    0.19016    0.52798   1.00
C3b      0.25974    0.28478    0.54078   1.00
C4       0.25038    0.25018    0.52100   1.00
O_3      0.18334    0.27447    0.47833   1.00
C5       0.24933    0.15779    0.61280   1.00
H2       0.26374    0.14592    0.58609   1.00
C5       0.22691    0.12507    0.63334   1.00
H2       0.27227    0.16938    0.63274   1.00
H2       0.21207    0.10702    0.61077   1.00
H2       0.20343    0.13896    0.65101   1.00
C5       0.25322    0.09940    0.65931   1.00
H2       0.27821    0.08829    0.64189   1.00
H2       0.23660    0.07408    0.67109   1.00
H2       0.26440    0.11604    0.68506   1.00
C5       0.12368    0.25962    0.50980   1.00
H2       0.10483    0.27438    0.48782   1.00
H2       0.13389    0.28257    0.53045   1.00
C5       0.10071    0.22802    0.53197   1.00
H2       0.07299    0.24043    0.54334   1.00
C5       0.37591    0.76670    0.63227   1.00
H2       0.36261    0.79198    0.64755   1.00
H2       0.39690    0.77924    0.61099   1.00
C5       0.39749    0.74065    0.66219   1.00
H2       0.42690    0.75271    0.66890   1.00
H2       0.40082    0.71057    0.65040   1.00
O_3      0.27115    0.68248    0.48000   1.00
C4       0.24975    0.75037    0.52100   1.00
C3c      0.28288    0.76141    0.54243   1.00
H1       0.30908    0.77027    0.52725   1.00
C3d      0.21573    0.73947    0.54135   1.00
C3       0.28301    0.76071    0.58354   1.00
O2       0.31476    0.77641    0.60248   1.00
C3       0.21600    0.73802    0.58227   1.00
H1       0.18968    0.72815    0.59657   1.00
C2       0.24940    0.74869    0.60439   1.00
C5       0.24095    0.65448    0.47879   1.00
H2       0.23380    0.64542    0.44838   1.00
H2       0.21380    0.66591    0.49266   1.00
C5       0.25480    0.61883    0.50122   1.00
H2       0.26299    0.62808    0.53129   1.00
H2       0.28170    0.60745    0.48691   1.00
C5       0.22304    0.58732    0.50254   1.00
H2       0.21452    0.57814    0.47260   1.00
H2       0.19665    0.59821    0.51803   1.00
H2       0.23399    0.56116    0.51830   1.00
C5       0.15916    0.75711    0.51105   1.00
C5       0.34224    0.74675    0.61070   1.00
H2       0.17448    0.77741    0.49088   1.00
H2       0.14918    0.77387    0.53712   1.00
H2       0.35293    0.73338    0.58300   1.00
H2       0.32968    0.72277    0.62895   1.00
H2       0.38140    0.73938    0.69055   1.00
H2       0.11758    0.78314    0.44250   1.00
H2       0.09331    0.79676    0.48766   1.00
C2       0.24893    0.74766    0.39605   1.00
C3       0.24010    0.78263    0.41597   1.00
O2       0.22194    0.81298    0.39674   1.00
C3       0.25979    0.71459    0.41826   1.00
H1       0.26770    0.68768    0.40385   1.00
C3a      0.24130    0.78351    0.45713   1.00
H1       0.23231    0.80984    0.47202   1.00
C3b      0.25974    0.71522    0.45922   1.00
C4       0.25038    0.74982    0.47900   1.00
O_3      0.18334    0.72553    0.52167   1.00
C5       0.24933    0.84221    0.38720   1.00
H2       0.26374    0.85408    0.41391   1.00
C5       0.22691    0.87493    0.36666   1.00
H2       0.27227    0.83062    0.36726   1.00
H2       0.21207    0.89298    0.38923   1.00
H2       0.20343    0.86104    0.34899   1.00
C5       0.25322    0.90060    0.34069   1.00
H2       0.27821    0.91171    0.35811   1.00
H2       0.23660    0.92592    0.32891   1.00
H2       0.26440    0.88396    0.31494   1.00
C5       0.12368    0.74038    0.49020   1.00
H2       0.10483    0.72562    0.51218   1.00
H2       0.13389    0.71743    0.46955   1.00
C5       0.10071    0.77198    0.46803   1.00
H2       0.07299    0.75957    0.45666   1.00
C5       0.26670    1.13227    0.37591   1.00
H2       0.29198    1.14755    0.36261   1.00
H2       0.27924    1.11099    0.39690   1.00
C5       0.24065    1.16219    0.39749   1.00
H2       0.25271    1.16890    0.42690   1.00
H2       0.21057    1.15040    0.40082   1.00
O_3      0.18248    0.98000    0.27115   1.00
C4       0.25037    1.02100    0.24975   1.00
C3c      0.26141    1.04243    0.28288   1.00
H1       0.27027    1.02725    0.30908   1.00
C3d      0.23947    1.04135    0.21573   1.00
C3       0.26071    1.08354    0.28301   1.00
O2       0.27641    1.10248    0.31476   1.00
C3       0.23802    1.08227    0.21600   1.00
H1       0.22815    1.09657    0.18968   1.00
C2       0.24869    1.10439    0.24940   1.00
C5       0.15448    0.97879    0.24095   1.00
H2       0.14542    0.94838    0.23380   1.00
H2       0.16591    0.99266    0.21380   1.00
C5       0.11883    1.00122    0.25480   1.00
H2       0.12808    1.03129    0.26299   1.00
H2       0.10745    0.98691    0.28170   1.00
C5       0.08732    1.00254    0.22304   1.00
H2       0.07814    0.97260    0.21452   1.00
H2       0.09821    1.01803    0.19665   1.00
H2       0.06116    1.01830    0.23399   1.00
C5       0.25711    1.01105    0.15916   1.00
C5       0.24675    1.11070    0.34224   1.00
H2       0.27741    0.99088    0.17448   1.00
H2       0.27387    1.03712    0.14918   1.00
H2       0.23338    1.08300    0.35293   1.00
H2       0.22277    1.12895    0.32968   1.00
H2       0.23938    1.19055    0.38140   1.00
H2       0.28314    0.94250    0.11758   1.00
H2       0.29676    0.98766    0.09331   1.00
C2       0.24766    0.89605    0.24893   1.00
C3       0.28263    0.91597    0.24010   1.00
O2       0.31298    0.89674    0.22194   1.00
C3       0.21459    0.91826    0.25979   1.00
H1       0.18768    0.90385    0.26770   1.00
C3a      0.28351    0.95713    0.24130   1.00
H1       0.30984    0.97202    0.23231   1.00
C3b      0.21522    0.95922    0.25974   1.00
C4       0.24982    0.97900    0.25038   1.00
O_3      0.22553    1.02167    0.18334   1.00
C5       0.34221    0.88720    0.24933   1.00
H2       0.35408    0.91391    0.26374   1.00
C5       0.37493    0.86666    0.22691   1.00
H2       0.33062    0.86726    0.27227   1.00
H2       0.39298    0.88923    0.21207   1.00
H2       0.36104    0.84899    0.20343   1.00
C5       0.40060    0.84069    0.25322   1.00
H2       0.41171    0.85811    0.27821   1.00
H2       0.42592    0.82891    0.23660   1.00
H2       0.38396    0.81494    0.26440   1.00
C5       0.24038    0.99020    0.12368   1.00
H2       0.22562    1.01218    0.10483   1.00
H2       0.21743    0.96955    0.13389   1.00
C5       0.27198    0.96803    0.10071   1.00
H2       0.25957    0.95666    0.07299   1.00
C5       -0.13227   0.87591    0.23330   1.00
H2       -0.14755   0.86261    0.20802   1.00
H2       -0.11099   0.89690    0.22076   1.00
C5       -0.16219   0.89749    0.25935   1.00
H2       -0.16890   0.92690    0.24729   1.00
H2       -0.15040   0.90082    0.28943   1.00
O_3      0.02000    0.77115    0.31752   1.00
C4       -0.02100   0.74975    0.24963   1.00
C3c      -0.04243   0.78288    0.23859   1.00
H1       -0.02725   0.80908    0.22973   1.00
C3d      -0.04135   0.71573    0.26053   1.00
C3       -0.08354   0.78301    0.23929   1.00
O2       -0.10248   0.81476    0.22359   1.00
C3       -0.08227   0.71600    0.26198   1.00
H1       -0.09657   0.68968    0.27185   1.00
C2       -0.10439   0.74940    0.25131   1.00
C5       0.02121    0.74095    0.34552   1.00
H2       0.05162    0.73380    0.35458   1.00
H2       0.00734    0.71380    0.33409   1.00
C5       -0.00122   0.75480    0.38117   1.00
H2       -0.03129   0.76299    0.37192   1.00
H2       0.01309    0.78170    0.39255   1.00
C5       -0.00254   0.72304    0.41268   1.00
H2       0.02740    0.71452    0.42186   1.00
H2       -0.01803   0.69665    0.40179   1.00
H2       -0.01830   0.73399    0.43884   1.00
C5       -0.01105   0.65916    0.24289   1.00
C5       -0.11070   0.84224    0.25325   1.00
H2       0.00912    0.67448    0.22259   1.00
H2       -0.03712   0.64918    0.22613   1.00
H2       -0.08300   0.85293    0.26662   1.00
H2       -0.12895   0.82968    0.27723   1.00
H2       -0.19055   0.88140    0.26062   1.00
H2       0.05750    0.61758    0.21686   1.00
H2       0.01234    0.59331    0.20324   1.00
C2       0.10395    0.74893    0.25234   1.00
C3       0.08403    0.74010    0.21737   1.00
O2       0.10326    0.72194    0.18702   1.00
C3       0.08174    0.75979    0.28541   1.00
H1       0.09615    0.76770    0.31232   1.00
C3a      0.04287    0.74130    0.21649   1.00
H1       0.02798    0.73231    0.19016   1.00
C3b      0.04078    0.75974    0.28478   1.00
C4       0.02100    0.75038    0.25018   1.00
O_3      -0.02167   0.68334    0.27447   1.00
C5       0.11280    0.74933    0.15779   1.00
H2       0.08609    0.76374    0.14592   1.00
C5       0.13334    0.72691    0.12507   1.00
H2       0.13274    0.77227    0.16938   1.00
H2       0.11077    0.71207    0.10702   1.00
H2       0.15101    0.70343    0.13896   1.00
C5       0.15931    0.75322    0.09940   1.00
H2       0.14189    0.77821    0.08829   1.00
H2       0.17109    0.73660    0.07408   1.00
H2       0.18506    0.76440    0.11604   1.00
C5       0.00980    0.62368    0.25962   1.00
H2       -0.01218   0.60483    0.27438   1.00
H2       0.03045    0.63389    0.28257   1.00
C5       0.03197    0.60071    0.22802   1.00
H2       0.04334    0.57299    0.24043   1.00
C5       0.63227    0.87591    0.26670   1.00
H2       0.64755    0.86261    0.29198   1.00
H2       0.61099    0.89690    0.27924   1.00
C5       0.66219    0.89749    0.24065   1.00
H2       0.66890    0.92690    0.25271   1.00
H2       0.65040    0.90082    0.21057   1.00
O_3      0.48000    0.77115    0.18248   1.00
C4       0.52100    0.74975    0.25037   1.00
C3c      0.54243    0.78288    0.26141   1.00
H1       0.52725    0.80908    0.27027   1.00
C3d      0.54135    0.71573    0.23947   1.00
C3       0.58354    0.78301    0.26071   1.00
O2       0.60248    0.81476    0.27641   1.00
C3       0.58227    0.71600    0.23802   1.00
H1       0.59657    0.68968    0.22815   1.00
C2       0.60439    0.74940    0.24869   1.00
C5       0.47879    0.74095    0.15448   1.00
H2       0.44838    0.73380    0.14542   1.00
H2       0.49266    0.71380    0.16591   1.00
C5       0.50122    0.75480    0.11883   1.00
H2       0.53129    0.76299    0.12808   1.00
H2       0.48691    0.78170    0.10745   1.00
C5       0.50254    0.72304    0.08732   1.00
H2       0.47260    0.71452    0.07814   1.00
H2       0.51803    0.69665    0.09821   1.00
H2       0.51830    0.73399    0.06116   1.00
C5       0.51105    0.65916    0.25711   1.00
C5       0.61070    0.84224    0.24675   1.00
H2       0.49088    0.67448    0.27741   1.00
H2       0.53712    0.64918    0.27387   1.00
H2       0.58300    0.85293    0.23338   1.00
H2       0.62895    0.82968    0.22277   1.00
H2       0.69055    0.88140    0.23938   1.00
H2       0.44250    0.61758    0.28314   1.00
H2       0.48766    0.59331    0.29676   1.00
C2       0.39605    0.74893    0.24766   1.00
C3       0.41597    0.74010    0.28263   1.00
O2       0.39674    0.72194    0.31298   1.00
C3       0.41826    0.75979    0.21459   1.00
H1       0.40385    0.76770    0.18768   1.00
C3a      0.45713    0.74130    0.28351   1.00
H1       0.47202    0.73231    0.30984   1.00
C3b      0.45922    0.75974    0.21522   1.00
C4       0.47900    0.75038    0.24982   1.00
O_3      0.52167    0.68334    0.22553   1.00
C5       0.38720    0.74933    0.34221   1.00
H2       0.41391    0.76374    0.35408   1.00
C5       0.36666    0.72691    0.37493   1.00
H2       0.36726    0.77227    0.33062   1.00
H2       0.38923    0.71207    0.39298   1.00
H2       0.34899    0.70343    0.36104   1.00
C5       0.34069    0.75322    0.40060   1.00
H2       0.35811    0.77821    0.41171   1.00
H2       0.32891    0.73660    0.42592   1.00
H2       0.31494    0.76440    0.38396   1.00
C5       0.49020    0.62368    0.24038   1.00
H2       0.51218    0.60483    0.22562   1.00
H2       0.46955    0.63389    0.21743   1.00
C5       0.46803    0.60071    0.27198   1.00
H2       0.45666    0.57299    0.25957   1.00
C5       0.23330    0.36773    0.37591   1.00
H2       0.20802    0.35245    0.36261   1.00
H2       0.22076    0.38901    0.39690   1.00
C5       0.25935    0.33781    0.39749   1.00
H2       0.24729    0.33110    0.42690   1.00
H2       0.28943    0.34960    0.40082   1.00
O_3      0.31752    0.52000    0.27115   1.00
C4       0.24963    0.47900    0.24975   1.00
C3c      0.23859    0.45757    0.28288   1.00
H1       0.22973    0.47275    0.30908   1.00
C3d      0.26053    0.45865    0.21573   1.00
C3       0.23929    0.41646    0.28301   1.00
O2       0.22359    0.39752    0.31476   1.00
C3       0.26198    0.41773    0.21600   1.00
H1       0.27185    0.40343    0.18968   1.00
C2       0.25131    0.39561    0.24940   1.00
C5       0.34552    0.52121    0.24095   1.00
H2       0.35458    0.55162    0.23380   1.00
H2       0.33409    0.50734    0.21380   1.00
C5       0.38117    0.49878    0.25480   1.00
H2       0.37192    0.46871    0.26299   1.00
H2       0.39255    0.51309    0.28170   1.00
C5       0.41268    0.49746    0.22304   1.00
H2       0.42186    0.52740    0.21452   1.00
H2       0.40179    0.48197    0.19665   1.00
H2       0.43884    0.48170    0.23399   1.00
C5       0.24289    0.48895    0.15916   1.00
C5       0.25325    0.38930    0.34224   1.00
H2       0.22259    0.50912    0.17448   1.00
H2       0.22613    0.46288    0.14918   1.00
H2       0.26662    0.41700    0.35293   1.00
H2       0.27723    0.37105    0.32968   1.00
H2       0.26062    0.30945    0.38140   1.00
H2       0.21686    0.55750    0.11758   1.00
H2       0.20324    0.51234    0.09331   1.00
C2       0.25234    0.60395    0.24893   1.00
C3       0.21737    0.58403    0.24010   1.00
O2       0.18702    0.60326    0.22194   1.00
C3       0.28541    0.58174    0.25979   1.00
H1       0.31232    0.59615    0.26770   1.00
C3a      0.21649    0.54287    0.24130   1.00
H1       0.19016    0.52798    0.23231   1.00
C3b      0.28478    0.54078    0.25974   1.00
C4       0.25018    0.52100    0.25038   1.00
O_3      0.27447    0.47833    0.18334   1.00
C5       0.15779    0.61280    0.24933   1.00
H2       0.14592    0.58609    0.26374   1.00
C5       0.12507    0.63334    0.22691   1.00
H2       0.16938    0.63274    0.27227   1.00
H2       0.10702    0.61077    0.21207   1.00
H2       0.13896    0.65101    0.20343   1.00
C5       0.09940    0.65931    0.25322   1.00
H2       0.08829    0.64189    0.27821   1.00
H2       0.07408    0.67109    0.23660   1.00
H2       0.11604    0.68506    0.26440   1.00
C5       0.25962    0.50980    0.12368   1.00
H2       0.27438    0.48782    0.10483   1.00
H2       0.28257    0.53045    0.13389   1.00
C5       0.22802    0.53197    0.10071   1.00
H2       0.24043    0.54334    0.07299   1.00
C5       0.37591    0.73330    -0.13227   1.00
H2       0.36261    0.70802    -0.14755   1.00
H2       0.39690    0.72076    -0.11099   1.00
C5       0.39749    0.75935    -0.16219   1.00
H2       0.42690    0.74729    -0.16890   1.00
H2       0.40082    0.78943    -0.15040   1.00
O_3      0.27115    0.81752    0.02000   1.00
C4       0.24975    0.74963    -0.02100   1.00
C3c      0.28288    0.73859    -0.04243   1.00
H1       0.30908    0.72973    -0.02725   1.00
C3d      0.21573    0.76053    -0.04135   1.00
C3       0.28301    0.73929    -0.08354   1.00
O2       0.31476    0.72359    -0.10248   1.00
C3       0.21600    0.76198    -0.08227   1.00
H1       0.18968    0.77185    -0.09657   1.00
C2       0.24940    0.75131    -0.10439   1.00
C5       0.24095    0.84552    0.02121   1.00
H2       0.23380    0.85458    0.05162   1.00
H2       0.21380    0.83409    0.00734   1.00
C5       0.25480    0.88117    -0.00122   1.00
H2       0.26299    0.87192    -0.03129   1.00
H2       0.28170    0.89255    0.01309   1.00
C5       0.22304    0.91268    -0.00254   1.00
H2       0.21452    0.92186    0.02740   1.00
H2       0.19665    0.90179    -0.01803   1.00
H2       0.23399    0.93884    -0.01830   1.00
C5       0.15916    0.74289    -0.01105   1.00
C5       0.34224    0.75325    -0.11070   1.00
H2       0.17448    0.72259    0.00912   1.00
H2       0.14918    0.72613    -0.03712   1.00
H2       0.35293    0.76662    -0.08300   1.00
H2       0.32968    0.77723    -0.12895   1.00
H2       0.38140    0.76062    -0.19055   1.00
H2       0.11758    0.71686    0.05750   1.00
H2       0.09331    0.70324    0.01234   1.00
C2       0.24893    0.75234    0.10395   1.00
C3       0.24010    0.71737    0.08403   1.00
O2       0.22194    0.68702    0.10326   1.00
C3       0.25979    0.78541    0.08174   1.00
H1       0.26770    0.81232    0.09615   1.00
C3a      0.24130    0.71649    0.04287   1.00
H1       0.23231    0.69016    0.02798   1.00
C3b      0.25974    0.78478    0.04078   1.00
C4       0.25038    0.75018    0.02100   1.00
O_3      0.18334    0.77447    -0.02167   1.00
C5       0.24933    0.65779    0.11280   1.00
H2       0.26374    0.64592    0.08609   1.00
C5       0.22691    0.62507    0.13334   1.00
H2       0.27227    0.66938    0.13274   1.00
H2       0.21207    0.60702    0.11077   1.00
H2       0.20343    0.63896    0.15101   1.00
C5       0.25322    0.59940    0.15931   1.00
H2       0.27821    0.58829    0.14189   1.00
H2       0.23660    0.57408    0.17109   1.00
H2       0.26440    0.61604    0.18506   1.00
C5       0.12368    0.75962    0.00980   1.00
H2       0.10483    0.77438    -0.01218   1.00
H2       0.13389    0.78257    0.03045   1.00
C5       0.10071    0.72802    0.03197   1.00
H2       0.07299    0.74043    0.04334   1.00
C5       0.87591    0.26670    0.63227   1.00
H2       0.86261    0.29198    0.64755   1.00
H2       0.89690    0.27924    0.61099   1.00
C5       0.89749    0.24065    0.66219   1.00
H2       0.92690    0.25271    0.66890   1.00
H2       0.90082    0.21057    0.65040   1.00
O_3      0.77115    0.18248    0.48000   1.00
C4       0.74975    0.25037    0.52100   1.00
C3c      0.78288    0.26141    0.54243   1.00
H1       0.80908    0.27027    0.52725   1.00
C3d      0.71573    0.23947    0.54135   1.00
C3       0.78301    0.26071    0.58354   1.00
O2       0.81476    0.27641    0.60248   1.00
C3       0.71600    0.23802    0.58227   1.00
H1       0.68968    0.22815    0.59657   1.00
C2       0.74940    0.24869    0.60439   1.00
C5       0.74095    0.15448    0.47879   1.00
H2       0.73380    0.14542    0.44838   1.00
H2       0.71380    0.16591    0.49266   1.00
C5       0.75480    0.11883    0.50122   1.00
H2       0.76299    0.12808    0.53129   1.00
H2       0.78170    0.10745    0.48691   1.00
C5       0.72304    0.08732    0.50254   1.00
H2       0.71452    0.07814    0.47260   1.00
H2       0.69665    0.09821    0.51803   1.00
H2       0.73399    0.06116    0.51830   1.00
C5       0.65916    0.25711    0.51105   1.00
C5       0.84224    0.24675    0.61070   1.00
H2       0.67448    0.27741    0.49088   1.00
H2       0.64918    0.27387    0.53712   1.00
H2       0.85293    0.23338    0.58300   1.00
H2       0.82968    0.22277    0.62895   1.00
H2       0.88140    0.23938    0.69055   1.00
H2       0.61758    0.28314    0.44250   1.00
H2       0.59331    0.29676    0.48766   1.00
C2       0.74893    0.24766    0.39605   1.00
C3       0.74010    0.28263    0.41597   1.00
O2       0.72194    0.31298    0.39674   1.00
C3       0.75979    0.21459    0.41826   1.00
H1       0.76770    0.18768    0.40385   1.00
C3a      0.74130    0.28351    0.45713   1.00
H1       0.73231    0.30984    0.47202   1.00
C3b      0.75974    0.21522    0.45922   1.00
C4       0.75038    0.24982    0.47900   1.00
O_3      0.68334    0.22553    0.52167   1.00
C5       0.74933    0.34221    0.38720   1.00
H2       0.76374    0.35408    0.41391   1.00
C5       0.72691    0.37493    0.36666   1.00
H2       0.77227    0.33062    0.36726   1.00
H2       0.71207    0.39298    0.38923   1.00
H2       0.70343    0.36104    0.34899   1.00
C5       0.75322    0.40060    0.34069   1.00
H2       0.77821    0.41171    0.35811   1.00
H2       0.73660    0.42592    0.32891   1.00
H2       0.76440    0.38396    0.31494   1.00
C5       0.62368    0.24038    0.49020   1.00
H2       0.60483    0.22562    0.51218   1.00
H2       0.63389    0.21743    0.46955   1.00
C5       0.60071    0.27198    0.46803   1.00
H2       0.57299    0.25957    0.45666   1.00
C5       0.76670    0.63227    0.37591   1.00
H2       0.79198    0.64755    0.36261   1.00
H2       0.77924    0.61099    0.39690   1.00
C5       0.74065    0.66219    0.39749   1.00
H2       0.75271    0.66890    0.42690   1.00
H2       0.71057    0.65040    0.40082   1.00
O_3      0.68248    0.48000    0.27115   1.00
C4       0.75037    0.52100    0.24975   1.00
C3c      0.76141    0.54243    0.28288   1.00
H1       0.77027    0.52725    0.30908   1.00
C3d      0.73947    0.54135    0.21573   1.00
C3       0.76071    0.58354    0.28301   1.00
O2       0.77641    0.60248    0.31476   1.00
C3       0.73802    0.58227    0.21600   1.00
H1       0.72815    0.59657    0.18968   1.00
C2       0.74869    0.60439    0.24940   1.00
C5       0.65448    0.47879    0.24095   1.00
H2       0.64542    0.44838    0.23380   1.00
H2       0.66591    0.49266    0.21380   1.00
C5       0.61883    0.50122    0.25480   1.00
H2       0.62808    0.53129    0.26299   1.00
H2       0.60745    0.48691    0.28170   1.00
C5       0.58732    0.50254    0.22304   1.00
H2       0.57814    0.47260    0.21452   1.00
H2       0.59821    0.51803    0.19665   1.00
H2       0.56116    0.51830    0.23399   1.00
C5       0.75711    0.51105    0.15916   1.00
C5       0.74675    0.61070    0.34224   1.00
H2       0.77741    0.49088    0.17448   1.00
H2       0.77387    0.53712    0.14918   1.00
H2       0.73338    0.58300    0.35293   1.00
H2       0.72277    0.62895    0.32968   1.00
H2       0.73938    0.69055    0.38140   1.00
H2       0.78314    0.44250    0.11758   1.00
H2       0.79676    0.48766    0.09331   1.00
C2       0.74766    0.39605    0.24893   1.00
C3       0.78263    0.41597    0.24010   1.00
O2       0.81298    0.39674    0.22194   1.00
C3       0.71459    0.41826    0.25979   1.00
H1       0.68768    0.40385    0.26770   1.00
C3a      0.78351    0.45713    0.24130   1.00
H1       0.80984    0.47202    0.23231   1.00
C3b      0.71522    0.45922    0.25974   1.00
C4       0.74982    0.47900    0.25038   1.00
O_3      0.72553    0.52167    0.18334   1.00
C5       0.84221    0.38720    0.24933   1.00
H2       0.85408    0.41391    0.26374   1.00
C5       0.87493    0.36666    0.22691   1.00
H2       0.83062    0.36726    0.27227   1.00
H2       0.89298    0.38923    0.21207   1.00
H2       0.86104    0.34899    0.20343   1.00
C5       0.90060    0.34069    0.25322   1.00
H2       0.91171    0.35811    0.27821   1.00
H2       0.92592    0.32891    0.23660   1.00
H2       0.88396    0.31494    0.26440   1.00
C5       0.74038    0.49020    0.12368   1.00
H2       0.72562    0.51218    0.10483   1.00
H2       0.71743    0.46955    0.13389   1.00
C5       0.77198    0.46803    0.10071   1.00
H2       0.75957    0.45666    0.07299   1.00
C5       0.36773    0.37591    0.23330   1.00
H2       0.35245    0.36261    0.20802   1.00
H2       0.38901    0.39690    0.22076   1.00
C5       0.33781    0.39749    0.25935   1.00
H2       0.33110    0.42690    0.24729   1.00
H2       0.34960    0.40082    0.28943   1.00
O_3      0.52000    0.27115    0.31752   1.00
C4       0.47900    0.24975    0.24963   1.00
C3c      0.45757    0.28288    0.23859   1.00
H1       0.47275    0.30908    0.22973   1.00
C3d      0.45865    0.21573    0.26053   1.00
C3       0.41646    0.28301    0.23929   1.00
O2       0.39752    0.31476    0.22359   1.00
C3       0.41773    0.21600    0.26198   1.00
H1       0.40343    0.18968    0.27185   1.00
C2       0.39561    0.24940    0.25131   1.00
C5       0.52121    0.24095    0.34552   1.00
H2       0.55162    0.23380    0.35458   1.00
H2       0.50734    0.21380    0.33409   1.00
C5       0.49878    0.25480    0.38117   1.00
H2       0.46871    0.26299    0.37192   1.00
H2       0.51309    0.28170    0.39255   1.00
C5       0.49746    0.22304    0.41268   1.00
H2       0.52740    0.21452    0.42186   1.00
H2       0.48197    0.19665    0.40179   1.00
H2       0.48170    0.23399    0.43884   1.00
C5       0.48895    0.15916    0.24289   1.00
C5       0.38930    0.34224    0.25325   1.00
H2       0.50912    0.17448    0.22259   1.00
H2       0.46288    0.14918    0.22613   1.00
H2       0.41700    0.35293    0.26662   1.00
H2       0.37105    0.32968    0.27723   1.00
H2       0.30945    0.38140    0.26062   1.00
H2       0.55750    0.11758    0.21686   1.00
H2       0.51234    0.09331    0.20324   1.00
C2       0.60395    0.24893    0.25234   1.00
C3       0.58403    0.24010    0.21737   1.00
O2       0.60326    0.22194    0.18702   1.00
C3       0.58174    0.25979    0.28541   1.00
H1       0.59615    0.26770    0.31232   1.00
C3a      0.54287    0.24130    0.21649   1.00
H1       0.52798    0.23231    0.19016   1.00
C3b      0.54078    0.25974    0.28478   1.00
C4       0.52100    0.25038    0.25018   1.00
O_3      0.47833    0.18334    0.27447   1.00
C5       0.61280    0.24933    0.15779   1.00
H2       0.58609    0.26374    0.14592   1.00
C5       0.63334    0.22691    0.12507   1.00
H2       0.63274    0.27227    0.16938   1.00
H2       0.61077    0.21207    0.10702   1.00
H2       0.65101    0.20343    0.13896   1.00
C5       0.65931    0.25322    0.09940   1.00
H2       0.64189    0.27821    0.08829   1.00
H2       0.67109    0.23660    0.07408   1.00
H2       0.68506    0.26440    0.11604   1.00
C5       0.50980    0.12368    0.25962   1.00
H2       0.48782    0.10483    0.27438   1.00
H2       0.53045    0.13389    0.28257   1.00
C5       0.53197    0.10071    0.22802   1.00
H2       0.54334    0.07299    0.24043   1.00
C5       1.13227    0.37591    0.26670   1.00
H2       1.14755    0.36261    0.29198   1.00
H2       1.11099    0.39690    0.27924   1.00
C5       1.16219    0.39749    0.24065   1.00
H2       1.16890    0.42690    0.25271   1.00
H2       1.15040    0.40082    0.21057   1.00
O_3      0.98000    0.27115    0.18248   1.00
C4       1.02100    0.24975    0.25037   1.00
C3c      1.04243    0.28288    0.26141   1.00
H1       1.02725    0.30908    0.27027   1.00
C3d      1.04135    0.21573    0.23947   1.00
C3       1.08354    0.28301    0.26071   1.00
O2       1.10248    0.31476    0.27641   1.00
C3       1.08227    0.21600    0.23802   1.00
H1       1.09657    0.18968    0.22815   1.00
C2       1.10439    0.24940    0.24869   1.00
C5       0.97879    0.24095    0.15448   1.00
H2       0.94838    0.23380    0.14542   1.00
H2       0.99266    0.21380    0.16591   1.00
C5       1.00122    0.25480    0.11883   1.00
H2       1.03129    0.26299    0.12808   1.00
H2       0.98691    0.28170    0.10745   1.00
C5       1.00254    0.22304    0.08732   1.00
H2       0.97260    0.21452    0.07814   1.00
H2       1.01803    0.19665    0.09821   1.00
H2       1.01830    0.23399    0.06116   1.00
C5       1.01105    0.15916    0.25711   1.00
C5       1.11070    0.34224    0.24675   1.00
H2       0.99088    0.17448    0.27741   1.00
H2       1.03712    0.14918    0.27387   1.00
H2       1.08300    0.35293    0.23338   1.00
H2       1.12895    0.32968    0.22277   1.00
H2       1.19055    0.38140    0.23938   1.00
H2       0.94250    0.11758    0.28314   1.00
H2       0.98766    0.09331    0.29676   1.00
C2       0.89605    0.24893    0.24766   1.00
C3       0.91597    0.24010    0.28263   1.00
O2       0.89674    0.22194    0.31298   1.00
C3       0.91826    0.25979    0.21459   1.00
H1       0.90385    0.26770    0.18768   1.00
C3a      0.95713    0.24130    0.28351   1.00
H1       0.97202    0.23231    0.30984   1.00
C3b      0.95922    0.25974    0.21522   1.00
C4       0.97900    0.25038    0.24982   1.00
O_3      1.02167    0.18334    0.22553   1.00
C5       0.88720    0.24933    0.34221   1.00
H2       0.91391    0.26374    0.35408   1.00
C5       0.86666    0.22691    0.37493   1.00
H2       0.86726    0.27227    0.33062   1.00
H2       0.88923    0.21207    0.39298   1.00
H2       0.84899    0.20343    0.36104   1.00
C5       0.84069    0.25322    0.40060   1.00
H2       0.85811    0.27821    0.41171   1.00
H2       0.82891    0.23660    0.42592   1.00
H2       0.81494    0.26440    0.38396   1.00
C5       0.99020    0.12368    0.24038   1.00
H2       1.01218    0.10483    0.22562   1.00
H2       0.96955    0.13389    0.21743   1.00
C5       0.96803    0.10071    0.27198   1.00
H2       0.95666    0.07299    0.25957   1.00
C5       0.73330    -0.13227   0.37591   1.00
H2       0.70802    -0.14755   0.36261   1.00
H2       0.72076    -0.11099   0.39690   1.00
C5       0.75935    -0.16219   0.39749   1.00
H2       0.74729    -0.16890   0.42690   1.00
H2       0.78943    -0.15040   0.40082   1.00
O_3      0.81752    0.02000    0.27115   1.00
C4       0.74963    -0.02100   0.24975   1.00
C3c      0.73859    -0.04243   0.28288   1.00
H1       0.72973    -0.02725   0.30908   1.00
C3d      0.76053    -0.04135   0.21573   1.00
C3       0.73929    -0.08354   0.28301   1.00
O2       0.72359    -0.10248   0.31476   1.00
C3       0.76198    -0.08227   0.21600   1.00
H1       0.77185    -0.09657   0.18968   1.00
C2       0.75131    -0.10439   0.24940   1.00
C5       0.84552    0.02121    0.24095   1.00
H2       0.85458    0.05162    0.23380   1.00
H2       0.83409    0.00734    0.21380   1.00
C5       0.88117    -0.00122   0.25480   1.00
H2       0.87192    -0.03129   0.26299   1.00
H2       0.89255    0.01309    0.28170   1.00
C5       0.91268    -0.00254   0.22304   1.00
H2       0.92186    0.02740    0.21452   1.00
H2       0.90179    -0.01803   0.19665   1.00
H2       0.93884    -0.01830   0.23399   1.00
C5       0.74289    -0.01105   0.15916   1.00
C5       0.75325    -0.11070   0.34224   1.00
H2       0.72259    0.00912    0.17448   1.00
H2       0.72613    -0.03712   0.14918   1.00
H2       0.76662    -0.08300   0.35293   1.00
H2       0.77723    -0.12895   0.32968   1.00
H2       0.76062    -0.19055   0.38140   1.00
H2       0.71686    0.05750    0.11758   1.00
H2       0.70324    0.01234    0.09331   1.00
C2       0.75234    0.10395    0.24893   1.00
C3       0.71737    0.08403    0.24010   1.00
O2       0.68702    0.10326    0.22194   1.00
C3       0.78541    0.08174    0.25979   1.00
H1       0.81232    0.09615    0.26770   1.00
C3a      0.71649    0.04287    0.24130   1.00
H1       0.69016    0.02798    0.23231   1.00
C3b      0.78478    0.04078    0.25974   1.00
C4       0.75018    0.02100    0.25038   1.00
O_3      0.77447    -0.02167   0.18334   1.00
C5       0.65779    0.11280    0.24933   1.00
H2       0.64592    0.08609    0.26374   1.00
C5       0.62507    0.13334    0.22691   1.00
H2       0.66938    0.13274    0.27227   1.00
H2       0.60702    0.11077    0.21207   1.00
H2       0.63896    0.15101    0.20343   1.00
C5       0.59940    0.15931    0.25322   1.00
H2       0.58829    0.14189    0.27821   1.00
H2       0.57408    0.17109    0.23660   1.00
H2       0.61604    0.18506    0.26440   1.00
C5       0.75962    0.00980    0.12368   1.00
H2       0.77438    -0.01218   0.10483   1.00
H2       0.78257    0.03045    0.13389   1.00
C5       0.72802    0.03197    0.10071   1.00
H2       0.74043    0.04334    0.07299   1.00
C5       0.87591    0.23330    -0.13227   1.00
H2       0.86261    0.20802    -0.14755   1.00
H2       0.89690    0.22076    -0.11099   1.00
C5       0.89749    0.25935    -0.16219   1.00
H2       0.92690    0.24729    -0.16890   1.00
H2       0.90082    0.28943    -0.15040   1.00
O_3      0.77115    0.31752    0.02000   1.00
C4       0.74975    0.24963    -0.02100   1.00
C3c      0.78288    0.23859    -0.04243   1.00
H1       0.80908    0.22973    -0.02725   1.00
C3d      0.71573    0.26053    -0.04135   1.00
C3       0.78301    0.23929    -0.08354   1.00
O2       0.81476    0.22359    -0.10248   1.00
C3       0.71600    0.26198    -0.08227   1.00
H1       0.68968    0.27185    -0.09657   1.00
C2       0.74940    0.25131    -0.10439   1.00
C5       0.74095    0.34552    0.02121   1.00
H2       0.73380    0.35458    0.05162   1.00
H2       0.71380    0.33409    0.00734   1.00
C5       0.75480    0.38117    -0.00122   1.00
H2       0.76299    0.37192    -0.03129   1.00
H2       0.78170    0.39255    0.01309   1.00
C5       0.72304    0.41268    -0.00254   1.00
H2       0.71452    0.42186    0.02740   1.00
H2       0.69665    0.40179    -0.01803   1.00
H2       0.73399    0.43884    -0.01830   1.00
C5       0.65916    0.24289    -0.01105   1.00
C5       0.84224    0.25325    -0.11070   1.00
H2       0.67448    0.22259    0.00912   1.00
H2       0.64918    0.22613    -0.03712   1.00
H2       0.85293    0.26662    -0.08300   1.00
H2       0.82968    0.27723    -0.12895   1.00
H2       0.88140    0.26062    -0.19055   1.00
H2       0.61758    0.21686    0.05750   1.00
H2       0.59331    0.20324    0.01234   1.00
C2       0.74893    0.25234    0.10395   1.00
C3       0.74010    0.21737    0.08403   1.00
O2       0.72194    0.18702    0.10326   1.00
C3       0.75979    0.28541    0.08174   1.00
H1       0.76770    0.31232    0.09615   1.00
C3a      0.74130    0.21649    0.04287   1.00
H1       0.73231    0.19016    0.02798   1.00
C3b      0.75974    0.28478    0.04078   1.00
C4       0.75038    0.25018    0.02100   1.00
O_3      0.68334    0.27447    -0.02167   1.00
C5       0.74933    0.15779    0.11280   1.00
H2       0.76374    0.14592    0.08609   1.00
C5       0.72691    0.12507    0.13334   1.00
H2       0.77227    0.16938    0.13274   1.00
H2       0.71207    0.10702    0.11077   1.00
H2       0.70343    0.13896    0.15101   1.00
C5       0.75322    0.09940    0.15931   1.00
H2       0.77821    0.08829    0.14189   1.00
H2       0.73660    0.07408    0.17109   1.00
H2       0.76440    0.11604    0.18506   1.00
C5       0.62368    0.25962    0.00980   1.00
H2       0.60483    0.27438    -0.01218   1.00
H2       0.63389    0.28257    0.03045   1.00
C5       0.60071    0.22802    0.03197   1.00
H2       0.57299    0.24043    0.04334   1.00
