data_IRMOF10_SG202_Ligand4_label_c.

_audit_creation_method             'generated by an auxiliary program of Tobunporous'

_symmetry_space_group_name_H-M     'P 1'
_symmetry_Int_Tables_number        1
_symmetry_cell_setting             triclinic

_cell_length_a                    34.2800
_cell_length_b                    34.2800
_cell_length_c                    34.2800
_cell_angle_alpha                 90.0000
_cell_angle_beta                  90.0000
_cell_angle_gamma                 90.0000

loop_
_atom_site_label
_atom_site_fract_x
_atom_site_fract_y
_atom_site_fract_z
_atom_site_occupancy
O1       0.75000    0.75000    0.75000   1.00
Zn1      0.71720    0.78280    0.78280   1.00
Zn1      0.78280    0.71720    0.78280   1.00
Zn1      0.78280    0.78280    0.71720   1.00
Zn1      0.71720    0.71720    0.71720   1.00
O2       0.72650    0.77350    0.83820   1.00
O2       0.72650    0.83820    0.77350   1.00
O2       0.66180    0.77350    0.77350   1.00
O2       0.77350    0.72650    0.83820   1.00
O2       0.83820    0.72650    0.77350   1.00
O2       0.77350    0.66180    0.77350   1.00
O2       0.77350    0.83820    0.72650   1.00
O2       0.83820    0.77350    0.72650   1.00
O2       0.77350    0.77350    0.66180   1.00
O2       0.66180    0.72650    0.72650   1.00
O2       0.72650    0.66180    0.72650   1.00
O2       0.72650    0.72650    0.66180   1.00
C1       0.75000    0.75000    0.85520   1.00
C1       0.75000    0.85520    0.75000   1.00
C1       0.64480    0.75000    0.75000   1.00
C1       0.85520    0.75000    0.75000   1.00
C1       0.75000    0.64480    0.75000   1.00
C1       0.75000    0.75000    0.64480   1.00
O1       0.25000    0.25000    0.75000   1.00
Zn1      0.21720    0.28280    0.78280   1.00
Zn1      0.28280    0.21720    0.78280   1.00
Zn1      0.28280    0.28280    0.71720   1.00
Zn1      0.21720    0.21720    0.71720   1.00
O2       0.22650    0.27350    0.83820   1.00
O2       0.22650    0.33820    0.77350   1.00
O2       0.16180    0.27350    0.77350   1.00
O2       0.27350    0.22650    0.83820   1.00
O2       0.33820    0.22650    0.77350   1.00
O2       0.27350    0.16180    0.77350   1.00
O2       0.27350    0.33820    0.72650   1.00
O2       0.33820    0.27350    0.72650   1.00
O2       0.27350    0.27350    0.66180   1.00
O2       0.16180    0.22650    0.72650   1.00
O2       0.22650    0.16180    0.72650   1.00
O2       0.22650    0.22650    0.66180   1.00
C1       0.25000    0.25000    0.85520   1.00
C1       0.25000    0.35520    0.75000   1.00
C1       0.14480    0.25000    0.75000   1.00
C1       0.35520    0.25000    0.75000   1.00
C1       0.25000    0.14480    0.75000   1.00
C1       0.25000    0.25000    0.64480   1.00
O1       0.25000    0.75000    0.25000   1.00
Zn1      0.21720    0.78280    0.28280   1.00
Zn1      0.28280    0.71720    0.28280   1.00
Zn1      0.28280    0.78280    0.21720   1.00
Zn1      0.21720    0.71720    0.21720   1.00
O2       0.22650    0.77350    0.33820   1.00
O2       0.22650    0.83820    0.27350   1.00
O2       0.16180    0.77350    0.27350   1.00
O2       0.27350    0.72650    0.33820   1.00
O2       0.33820    0.72650    0.27350   1.00
O2       0.27350    0.66180    0.27350   1.00
O2       0.27350    0.83820    0.22650   1.00
O2       0.33820    0.77350    0.22650   1.00
O2       0.27350    0.77350    0.16180   1.00
O2       0.16180    0.72650    0.22650   1.00
O2       0.22650    0.66180    0.22650   1.00
O2       0.22650    0.72650    0.16180   1.00
C1       0.25000    0.75000    0.35520   1.00
C1       0.25000    0.85520    0.25000   1.00
C1       0.14480    0.75000    0.25000   1.00
C1       0.35520    0.75000    0.25000   1.00
C1       0.25000    0.64480    0.25000   1.00
C1       0.25000    0.75000    0.14480   1.00
O1       0.75000    0.25000    0.25000   1.00
Zn1      0.71720    0.28280    0.28280   1.00
Zn1      0.78280    0.21720    0.28280   1.00
Zn1      0.78280    0.28280    0.21720   1.00
Zn1      0.71720    0.21720    0.21720   1.00
O2       0.72650    0.27350    0.33820   1.00
O2       0.72650    0.33820    0.27350   1.00
O2       0.66180    0.27350    0.27350   1.00
O2       0.77350    0.22650    0.33820   1.00
O2       0.83820    0.22650    0.27350   1.00
O2       0.77350    0.16180    0.27350   1.00
O2       0.77350    0.33820    0.22650   1.00
O2       0.83820    0.27350    0.22650   1.00
O2       0.77350    0.27350    0.16180   1.00
O2       0.66180    0.22650    0.22650   1.00
O2       0.72650    0.16180    0.22650   1.00
O2       0.72650    0.22650    0.16180   1.00
C1       0.75000    0.25000    0.35520   1.00
C1       0.75000    0.35520    0.25000   1.00
C1       0.64480    0.25000    0.25000   1.00
C1       0.85520    0.25000    0.25000   1.00
C1       0.75000    0.14480    0.25000   1.00
C1       0.75000    0.25000    0.14480   1.00
O1       0.25000    0.25000    0.25000   1.00
Zn1      0.28280    0.21720    0.21720   1.00
Zn1      0.21720    0.28280    0.21720   1.00
Zn1      0.21720    0.21720    0.28280   1.00
Zn1      0.28280    0.28280    0.28280   1.00
O2       0.27350    0.22650    0.16180   1.00
O2       0.27350    0.16180    0.22650   1.00
O2       0.33820    0.22650    0.22650   1.00
O2       0.22650    0.27350    0.16180   1.00
O2       0.16180    0.27350    0.22650   1.00
O2       0.22650    0.33820    0.22650   1.00
O2       0.22650    0.16180    0.27350   1.00
O2       0.16180    0.22650    0.27350   1.00
O2       0.22650    0.22650    0.33820   1.00
O2       0.33820    0.27350    0.27350   1.00
O2       0.27350    0.33820    0.27350   1.00
O2       0.27350    0.27350    0.33820   1.00
C1       0.25000    0.25000    0.14480   1.00
C1       0.25000    0.14480    0.25000   1.00
C1       0.35520    0.25000    0.25000   1.00
C1       0.14480    0.25000    0.25000   1.00
C1       0.25000    0.35520    0.25000   1.00
C1       0.25000    0.25000    0.35520   1.00
O1       0.75000    0.75000    0.25000   1.00
Zn1      0.78280    0.71720    0.21720   1.00
Zn1      0.71720    0.78280    0.21720   1.00
Zn1      0.71720    0.71720    0.28280   1.00
Zn1      0.78280    0.78280    0.28280   1.00
O2       0.77350    0.72650    0.16180   1.00
O2       0.77350    0.66180    0.22650   1.00
O2       0.83820    0.72650    0.22650   1.00
O2       0.72650    0.77350    0.16180   1.00
O2       0.66180    0.77350    0.22650   1.00
O2       0.72650    0.83820    0.22650   1.00
O2       0.72650    0.66180    0.27350   1.00
O2       0.66180    0.72650    0.27350   1.00
O2       0.72650    0.72650    0.33820   1.00
O2       0.83820    0.77350    0.27350   1.00
O2       0.77350    0.83820    0.27350   1.00
O2       0.77350    0.77350    0.33820   1.00
C1       0.75000    0.75000    0.14480   1.00
C1       0.75000    0.64480    0.25000   1.00
C1       0.85520    0.75000    0.25000   1.00
C1       0.64480    0.75000    0.25000   1.00
C1       0.75000    0.85520    0.25000   1.00
C1       0.75000    0.75000    0.35520   1.00
O1       0.75000    0.25000    0.75000   1.00
Zn1      0.78280    0.21720    0.71720   1.00
Zn1      0.71720    0.28280    0.71720   1.00
Zn1      0.71720    0.21720    0.78280   1.00
Zn1      0.78280    0.28280    0.78280   1.00
O2       0.77350    0.22650    0.66180   1.00
O2       0.77350    0.16180    0.72650   1.00
O2       0.83820    0.22650    0.72650   1.00
O2       0.72650    0.27350    0.66180   1.00
O2       0.66180    0.27350    0.72650   1.00
O2       0.72650    0.33820    0.72650   1.00
O2       0.72650    0.16180    0.77350   1.00
O2       0.66180    0.22650    0.77350   1.00
O2       0.72650    0.22650    0.83820   1.00
O2       0.83820    0.27350    0.77350   1.00
O2       0.77350    0.33820    0.77350   1.00
O2       0.77350    0.27350    0.83820   1.00
C1       0.75000    0.25000    0.64480   1.00
C1       0.75000    0.14480    0.75000   1.00
C1       0.85520    0.25000    0.75000   1.00
C1       0.64480    0.25000    0.75000   1.00
C1       0.75000    0.35520    0.75000   1.00
C1       0.75000    0.25000    0.85520   1.00
O1       0.25000    0.75000    0.75000   1.00
Zn1      0.28280    0.71720    0.71720   1.00
Zn1      0.21720    0.78280    0.71720   1.00
Zn1      0.21720    0.71720    0.78280   1.00
Zn1      0.28280    0.78280    0.78280   1.00
O2       0.27350    0.72650    0.66180   1.00
O2       0.27350    0.66180    0.72650   1.00
O2       0.33820    0.72650    0.72650   1.00
O2       0.22650    0.77350    0.66180   1.00
O2       0.16180    0.77350    0.72650   1.00
O2       0.22650    0.83820    0.72650   1.00
O2       0.22650    0.66180    0.77350   1.00
O2       0.16180    0.72650    0.77350   1.00
O2       0.22650    0.72650    0.83820   1.00
O2       0.33820    0.77350    0.77350   1.00
O2       0.27350    0.83820    0.77350   1.00
O2       0.27350    0.77350    0.83820   1.00
C1       0.25000    0.75000    0.64480   1.00
C1       0.25000    0.64480    0.75000   1.00
C1       0.35520    0.75000    0.75000   1.00
C1       0.14480    0.75000    0.75000   1.00
C1       0.25000    0.85520    0.75000   1.00
C1       0.25000    0.75000    0.85520   1.00
C4       0.75114    0.74535    0.98025   1.00
C4       0.75015    0.74415    1.02191   1.00
C3       0.78634    0.75144    0.95897   1.00
C3       0.78469    0.74486    1.04504   1.00
C3       0.71585    0.74036    0.95854   1.00
C3       0.71347    0.74212    1.04170   1.00
C2       0.75349    0.74585    0.89595   1.00
C2       0.74811    0.74368    1.10622   1.00
C3       0.78759    0.75151    0.91811   1.00
C3       0.78378    0.74483    1.08591   1.00
C3       0.71841    0.74040    0.91696   1.00
C3       0.71379    0.74236    1.08336   1.00
H1       0.81233    0.75646    0.97237   1.00
H1       0.81184    0.74503    1.03306   1.00
C5       0.67927    0.73574    0.97835   1.00
C5       0.67778    0.73968    1.01998   1.00
H1       0.81393    0.75590    0.90451   1.00
H1       0.80972    0.74553    1.10091   1.00
H1       0.69399    0.73668    0.90052   1.00
H1       0.68829    0.74121    1.09848   1.00
C6       0.64286    0.72635    0.95515   1.00
C6       0.63907    0.74174    1.04119   1.00
H2       0.64980    0.70417    0.93345   1.00
H2       0.64045    0.76474    1.06310   1.00
H2       0.62119    0.71142    0.97286   1.00
H2       0.61589    0.75230    1.02228   1.00
C6       0.62363    0.76321    0.93606   1.00
C6       0.62635    0.70176    1.05942   1.00
H2       0.64626    0.78146    0.92292   1.00
H2       0.65135    0.68816    1.07383   1.00
C6       0.59126    0.75624    0.90459   1.00
C6       0.59163    0.70219    1.08911   1.00
H2       0.61116    0.78088    0.95949   1.00
H2       0.61877    0.68214    1.03546   1.00
C6       0.60806    0.73673    0.86735   1.00
C6       0.60236    0.72439    1.12708   1.00
C6       0.55747    0.73092    0.92074   1.00
C6       0.55448    0.72059    1.07107   1.00
C6       0.57408    0.79637    0.89245   1.00
C6       0.58191    0.65943    1.10054   1.00
H2       0.63242    0.75358    0.85558   1.00
H2       0.62886    0.71250    1.14020   1.00
H2       0.61851    0.70732    0.87330   1.00
H2       0.60723    0.75529    1.12154   1.00
H2       0.58590    0.73447    0.84459   1.00
H2       0.57902    0.72221    1.14863   1.00
H2       0.53381    0.72856    0.89955   1.00
H2       0.52973    0.71822    1.09098   1.00
H2       0.56744    0.70142    0.92725   1.00
H2       0.55890    0.75149    1.06494   1.00
H2       0.54565    0.74359    0.94745   1.00
H2       0.54676    0.70602    1.04385   1.00
H2       0.59672    0.81529    0.88042   1.00
H2       0.60712    0.64518    1.11383   1.00
H2       0.55146    0.79305    0.87025   1.00
H2       0.55794    0.65822    1.12149   1.00
H2       0.56104    0.81128    0.91739   1.00
H2       0.57332    0.64242    1.07502   1.00
C4       0.74535    0.98025    0.75114   1.00
C4       0.74415    1.02191    0.75015   1.00
C3       0.75144    0.95897    0.78634   1.00
C3       0.74486    1.04504    0.78469   1.00
C3       0.74036    0.95854    0.71585   1.00
C3       0.74212    1.04170    0.71347   1.00
C2       0.74585    0.89595    0.75349   1.00
C2       0.74368    1.10622    0.74811   1.00
C3       0.75151    0.91811    0.78759   1.00
C3       0.74483    1.08591    0.78378   1.00
C3       0.74040    0.91696    0.71841   1.00
C3       0.74236    1.08336    0.71379   1.00
H1       0.75646    0.97237    0.81233   1.00
H1       0.74503    1.03306    0.81184   1.00
C5       0.73574    0.97835    0.67927   1.00
C5       0.73968    1.01998    0.67778   1.00
H1       0.75590    0.90451    0.81393   1.00
H1       0.74553    1.10091    0.80972   1.00
H1       0.73668    0.90052    0.69399   1.00
H1       0.74121    1.09848    0.68829   1.00
C6       0.72635    0.95515    0.64286   1.00
C6       0.74174    1.04119    0.63907   1.00
H2       0.70417    0.93345    0.64980   1.00
H2       0.76474    1.06310    0.64045   1.00
H2       0.71142    0.97286    0.62119   1.00
H2       0.75230    1.02228    0.61589   1.00
C6       0.76321    0.93606    0.62363   1.00
C6       0.70176    1.05942    0.62635   1.00
H2       0.78146    0.92292    0.64626   1.00
H2       0.68816    1.07383    0.65135   1.00
C6       0.75624    0.90459    0.59126   1.00
C6       0.70219    1.08911    0.59163   1.00
H2       0.78088    0.95949    0.61116   1.00
H2       0.68214    1.03546    0.61877   1.00
C6       0.73673    0.86735    0.60806   1.00
C6       0.72439    1.12708    0.60236   1.00
C6       0.73092    0.92074    0.55747   1.00
C6       0.72059    1.07107    0.55448   1.00
C6       0.79637    0.89245    0.57408   1.00
C6       0.65943    1.10054    0.58191   1.00
H2       0.75358    0.85558    0.63242   1.00
H2       0.71250    1.14020    0.62886   1.00
H2       0.70732    0.87330    0.61851   1.00
H2       0.75529    1.12154    0.60723   1.00
H2       0.73447    0.84459    0.58590   1.00
H2       0.72221    1.14863    0.57902   1.00
H2       0.72856    0.89955    0.53381   1.00
H2       0.71822    1.09098    0.52973   1.00
H2       0.70142    0.92725    0.56744   1.00
H2       0.75149    1.06494    0.55890   1.00
H2       0.74359    0.94745    0.54565   1.00
H2       0.70602    1.04385    0.54676   1.00
H2       0.81529    0.88042    0.59672   1.00
H2       0.64518    1.11383    0.60712   1.00
H2       0.79305    0.87025    0.55146   1.00
H2       0.65822    1.12149    0.55794   1.00
H2       0.81128    0.91739    0.56104   1.00
H2       0.64242    1.07502    0.57332   1.00
C4       0.51975    0.75114    0.75465   1.00
C4       0.47809    0.75015    0.75585   1.00
C3       0.54103    0.78634    0.74856   1.00
C3       0.45496    0.78469    0.75514   1.00
C3       0.54146    0.71585    0.75964   1.00
C3       0.45830    0.71347    0.75788   1.00
C2       0.60405    0.75349    0.75415   1.00
C2       0.39378    0.74811    0.75632   1.00
C3       0.58189    0.78759    0.74849   1.00
C3       0.41409    0.78378    0.75517   1.00
C3       0.58304    0.71841    0.75960   1.00
C3       0.41664    0.71379    0.75764   1.00
H1       0.52763    0.81233    0.74354   1.00
H1       0.46694    0.81184    0.75497   1.00
C5       0.52165    0.67927    0.76426   1.00
C5       0.48002    0.67778    0.76032   1.00
H1       0.59549    0.81393    0.74410   1.00
H1       0.39909    0.80972    0.75447   1.00
H1       0.59948    0.69399    0.76332   1.00
H1       0.40152    0.68829    0.75879   1.00
C6       0.54485    0.64286    0.77365   1.00
C6       0.45881    0.63907    0.75826   1.00
H2       0.56655    0.64980    0.79583   1.00
H2       0.43690    0.64045    0.73526   1.00
H2       0.52714    0.62119    0.78858   1.00
H2       0.47772    0.61589    0.74770   1.00
C6       0.56394    0.62363    0.73679   1.00
C6       0.44058    0.62635    0.79824   1.00
H2       0.57708    0.64626    0.71854   1.00
H2       0.42617    0.65135    0.81184   1.00
C6       0.59541    0.59126    0.74376   1.00
C6       0.41089    0.59163    0.79781   1.00
H2       0.54051    0.61116    0.71912   1.00
H2       0.46454    0.61877    0.81786   1.00
C6       0.63265    0.60806    0.76327   1.00
C6       0.37292    0.60236    0.77561   1.00
C6       0.57926    0.55747    0.76908   1.00
C6       0.42893    0.55448    0.77941   1.00
C6       0.60755    0.57408    0.70363   1.00
C6       0.39946    0.58191    0.84057   1.00
H2       0.64442    0.63242    0.74642   1.00
H2       0.35980    0.62886    0.78750   1.00
H2       0.62670    0.61851    0.79268   1.00
H2       0.37846    0.60723    0.74471   1.00
H2       0.65541    0.58590    0.76553   1.00
H2       0.35137    0.57902    0.77779   1.00
H2       0.60045    0.53381    0.77144   1.00
H2       0.40902    0.52973    0.78178   1.00
H2       0.57275    0.56744    0.79858   1.00
H2       0.43506    0.55890    0.74851   1.00
H2       0.55255    0.54565    0.75641   1.00
H2       0.45615    0.54676    0.79398   1.00
H2       0.61958    0.59672    0.68471   1.00
H2       0.38617    0.60712    0.85482   1.00
H2       0.62975    0.55146    0.70695   1.00
H2       0.37851    0.55794    0.84178   1.00
H2       0.58261    0.56104    0.68872   1.00
H2       0.42498    0.57332    0.85758   1.00
C4       0.98025    0.75114    0.74535   1.00
C4       1.02191    0.75015    0.74415   1.00
C3       0.95897    0.78634    0.75144   1.00
C3       1.04504    0.78469    0.74486   1.00
C3       0.95854    0.71585    0.74036   1.00
C3       1.04170    0.71347    0.74212   1.00
C2       0.89595    0.75349    0.74585   1.00
C2       1.10622    0.74811    0.74368   1.00
C3       0.91811    0.78759    0.75151   1.00
C3       1.08591    0.78378    0.74483   1.00
C3       0.91696    0.71841    0.74040   1.00
C3       1.08336    0.71379    0.74236   1.00
H1       0.97237    0.81233    0.75646   1.00
H1       1.03306    0.81184    0.74503   1.00
C5       0.97835    0.67927    0.73574   1.00
C5       1.01998    0.67778    0.73968   1.00
H1       0.90451    0.81393    0.75590   1.00
H1       1.10091    0.80972    0.74553   1.00
H1       0.90052    0.69399    0.73668   1.00
H1       1.09848    0.68829    0.74121   1.00
C6       0.95515    0.64286    0.72635   1.00
C6       1.04119    0.63907    0.74174   1.00
H2       0.93345    0.64980    0.70417   1.00
H2       1.06310    0.64045    0.76474   1.00
H2       0.97286    0.62119    0.71142   1.00
H2       1.02228    0.61589    0.75230   1.00
C6       0.93606    0.62363    0.76321   1.00
C6       1.05942    0.62635    0.70176   1.00
H2       0.92292    0.64626    0.78146   1.00
H2       1.07383    0.65135    0.68816   1.00
C6       0.90459    0.59126    0.75624   1.00
C6       1.08911    0.59163    0.70219   1.00
H2       0.95949    0.61116    0.78088   1.00
H2       1.03546    0.61877    0.68214   1.00
C6       0.86735    0.60806    0.73673   1.00
C6       1.12708    0.60236    0.72439   1.00
C6       0.92074    0.55747    0.73092   1.00
C6       1.07107    0.55448    0.72059   1.00
C6       0.89245    0.57408    0.79637   1.00
C6       1.10054    0.58191    0.65943   1.00
H2       0.85558    0.63242    0.75358   1.00
H2       1.14020    0.62886    0.71250   1.00
H2       0.87330    0.61851    0.70732   1.00
H2       1.12154    0.60723    0.75529   1.00
H2       0.84459    0.58590    0.73447   1.00
H2       1.14863    0.57902    0.72221   1.00
H2       0.89955    0.53381    0.72856   1.00
H2       1.09098    0.52973    0.71822   1.00
H2       0.92725    0.56744    0.70142   1.00
H2       1.06494    0.55890    0.75149   1.00
H2       0.94745    0.54565    0.74359   1.00
H2       1.04385    0.54676    0.70602   1.00
H2       0.88042    0.59672    0.81529   1.00
H2       1.11383    0.60712    0.64518   1.00
H2       0.87025    0.55146    0.79305   1.00
H2       1.12149    0.55794    0.65822   1.00
H2       0.91739    0.56104    0.81128   1.00
H2       1.07502    0.57332    0.64242   1.00
C4       0.75465    0.51975    0.75114   1.00
C4       0.75585    0.47809    0.75015   1.00
C3       0.74856    0.54103    0.78634   1.00
C3       0.75514    0.45496    0.78469   1.00
C3       0.75964    0.54146    0.71585   1.00
C3       0.75788    0.45830    0.71347   1.00
C2       0.75415    0.60405    0.75349   1.00
C2       0.75632    0.39378    0.74811   1.00
C3       0.74849    0.58189    0.78759   1.00
C3       0.75517    0.41409    0.78378   1.00
C3       0.75960    0.58304    0.71841   1.00
C3       0.75764    0.41664    0.71379   1.00
H1       0.74354    0.52763    0.81233   1.00
H1       0.75497    0.46694    0.81184   1.00
C5       0.76426    0.52165    0.67927   1.00
C5       0.76032    0.48002    0.67778   1.00
H1       0.74410    0.59549    0.81393   1.00
H1       0.75447    0.39909    0.80972   1.00
H1       0.76332    0.59948    0.69399   1.00
H1       0.75879    0.40152    0.68829   1.00
C6       0.77365    0.54485    0.64286   1.00
C6       0.75826    0.45881    0.63907   1.00
H2       0.79583    0.56655    0.64980   1.00
H2       0.73526    0.43690    0.64045   1.00
H2       0.78858    0.52714    0.62119   1.00
H2       0.74770    0.47772    0.61589   1.00
C6       0.73679    0.56394    0.62363   1.00
C6       0.79824    0.44058    0.62635   1.00
H2       0.71854    0.57708    0.64626   1.00
H2       0.81184    0.42617    0.65135   1.00
C6       0.74376    0.59541    0.59126   1.00
C6       0.79781    0.41089    0.59163   1.00
H2       0.71912    0.54051    0.61116   1.00
H2       0.81786    0.46454    0.61877   1.00
C6       0.76327    0.63265    0.60806   1.00
C6       0.77561    0.37292    0.60236   1.00
C6       0.76908    0.57926    0.55747   1.00
C6       0.77941    0.42893    0.55448   1.00
C6       0.70363    0.60755    0.57408   1.00
C6       0.84057    0.39946    0.58191   1.00
H2       0.74642    0.64442    0.63242   1.00
H2       0.78750    0.35980    0.62886   1.00
H2       0.79268    0.62670    0.61851   1.00
H2       0.74471    0.37846    0.60723   1.00
H2       0.76553    0.65541    0.58590   1.00
H2       0.77779    0.35137    0.57902   1.00
H2       0.77144    0.60045    0.53381   1.00
H2       0.78178    0.40902    0.52973   1.00
H2       0.79858    0.57275    0.56744   1.00
H2       0.74851    0.43506    0.55890   1.00
H2       0.75641    0.55255    0.54565   1.00
H2       0.79398    0.45615    0.54676   1.00
H2       0.68471    0.61958    0.59672   1.00
H2       0.85482    0.38617    0.60712   1.00
H2       0.70695    0.62975    0.55146   1.00
H2       0.84178    0.37851    0.55794   1.00
H2       0.68872    0.58261    0.56104   1.00
H2       0.85758    0.42498    0.57332   1.00
C4       0.75114    0.75465    0.51975   1.00
C4       0.75015    0.75585    0.47809   1.00
C3       0.78634    0.74856    0.54103   1.00
C3       0.78469    0.75514    0.45496   1.00
C3       0.71585    0.75964    0.54146   1.00
C3       0.71347    0.75788    0.45830   1.00
C2       0.75349    0.75415    0.60405   1.00
C2       0.74811    0.75632    0.39378   1.00
C3       0.78759    0.74849    0.58189   1.00
C3       0.78378    0.75517    0.41409   1.00
C3       0.71841    0.75960    0.58304   1.00
C3       0.71379    0.75764    0.41664   1.00
H1       0.81233    0.74354    0.52763   1.00
H1       0.81184    0.75497    0.46694   1.00
C5       0.67927    0.76426    0.52165   1.00
C5       0.67778    0.76032    0.48002   1.00
H1       0.81393    0.74410    0.59549   1.00
H1       0.80972    0.75447    0.39909   1.00
H1       0.69399    0.76332    0.59948   1.00
H1       0.68829    0.75879    0.40152   1.00
C6       0.64286    0.77365    0.54485   1.00
C6       0.63907    0.75826    0.45881   1.00
H2       0.64980    0.79583    0.56655   1.00
H2       0.64045    0.73526    0.43690   1.00
H2       0.62119    0.78858    0.52714   1.00
H2       0.61589    0.74770    0.47772   1.00
C6       0.62363    0.73679    0.56394   1.00
C6       0.62635    0.79824    0.44058   1.00
H2       0.64626    0.71854    0.57708   1.00
H2       0.65135    0.81184    0.42617   1.00
C6       0.59126    0.74376    0.59541   1.00
C6       0.59163    0.79781    0.41089   1.00
H2       0.61116    0.71912    0.54051   1.00
H2       0.61877    0.81786    0.46454   1.00
C6       0.60806    0.76327    0.63265   1.00
C6       0.60236    0.77561    0.37292   1.00
C6       0.55747    0.76908    0.57926   1.00
C6       0.55448    0.77941    0.42893   1.00
C6       0.57408    0.70363    0.60755   1.00
C6       0.58191    0.84057    0.39946   1.00
H2       0.63242    0.74642    0.64442   1.00
H2       0.62886    0.78750    0.35980   1.00
H2       0.61851    0.79268    0.62670   1.00
H2       0.60723    0.74471    0.37846   1.00
H2       0.58590    0.76553    0.65541   1.00
H2       0.57902    0.77779    0.35137   1.00
H2       0.53381    0.77144    0.60045   1.00
H2       0.52973    0.78178    0.40902   1.00
H2       0.56744    0.79858    0.57275   1.00
H2       0.55890    0.74851    0.43506   1.00
H2       0.54565    0.75641    0.55255   1.00
H2       0.54676    0.79398    0.45615   1.00
H2       0.59672    0.68471    0.61958   1.00
H2       0.60712    0.85482    0.38617   1.00
H2       0.55146    0.70695    0.62975   1.00
H2       0.55794    0.84178    0.37851   1.00
H2       0.56104    0.68872    0.58261   1.00
H2       0.57332    0.85758    0.42498   1.00
C4       0.25114    0.24535    0.98025   1.00
C4       0.25015    0.24415    1.02191   1.00
C3       0.28634    0.25144    0.95897   1.00
C3       0.28469    0.24486    1.04504   1.00
C3       0.21585    0.24036    0.95854   1.00
C3       0.21347    0.24212    1.04170   1.00
C2       0.25349    0.24585    0.89595   1.00
C2       0.24811    0.24368    1.10622   1.00
C3       0.28759    0.25151    0.91811   1.00
C3       0.28378    0.24483    1.08591   1.00
C3       0.21841    0.24040    0.91696   1.00
C3       0.21379    0.24236    1.08336   1.00
H1       0.31233    0.25646    0.97237   1.00
H1       0.31184    0.24503    1.03306   1.00
C5       0.17927    0.23574    0.97835   1.00
C5       0.17778    0.23968    1.01998   1.00
H1       0.31393    0.25590    0.90451   1.00
H1       0.30972    0.24553    1.10091   1.00
H1       0.19399    0.23668    0.90052   1.00
H1       0.18829    0.24121    1.09848   1.00
C6       0.14286    0.22635    0.95515   1.00
C6       0.13907    0.24174    1.04119   1.00
H2       0.14980    0.20417    0.93345   1.00
H2       0.14045    0.26474    1.06310   1.00
H2       0.12119    0.21142    0.97286   1.00
H2       0.11589    0.25230    1.02228   1.00
C6       0.12363    0.26321    0.93606   1.00
C6       0.12635    0.20176    1.05942   1.00
H2       0.14626    0.28146    0.92292   1.00
H2       0.15135    0.18816    1.07383   1.00
C6       0.09126    0.25624    0.90459   1.00
C6       0.09163    0.20219    1.08911   1.00
H2       0.11116    0.28088    0.95949   1.00
H2       0.11877    0.18214    1.03546   1.00
C6       0.10806    0.23673    0.86735   1.00
C6       0.10236    0.22439    1.12708   1.00
C6       0.05747    0.23092    0.92074   1.00
C6       0.05448    0.22059    1.07107   1.00
C6       0.07408    0.29637    0.89245   1.00
C6       0.08191    0.15943    1.10054   1.00
H2       0.13242    0.25358    0.85558   1.00
H2       0.12886    0.21250    1.14020   1.00
H2       0.11851    0.20732    0.87330   1.00
H2       0.10723    0.25529    1.12154   1.00
H2       0.08590    0.23447    0.84459   1.00
H2       0.07902    0.22221    1.14863   1.00
H2       0.03381    0.22856    0.89955   1.00
H2       0.02973    0.21822    1.09098   1.00
H2       0.06744    0.20142    0.92725   1.00
H2       0.05890    0.25149    1.06494   1.00
H2       0.04565    0.24359    0.94745   1.00
H2       0.04676    0.20602    1.04385   1.00
H2       0.09672    0.31529    0.88042   1.00
H2       0.10712    0.14518    1.11383   1.00
H2       0.05146    0.29305    0.87025   1.00
H2       0.05794    0.15822    1.12149   1.00
H2       0.06104    0.31128    0.91739   1.00
H2       0.07332    0.14242    1.07502   1.00
C4       0.24535    0.48025    0.75114   1.00
C4       0.24415    0.52191    0.75015   1.00
C3       0.25144    0.45897    0.78634   1.00
C3       0.24486    0.54504    0.78469   1.00
C3       0.24036    0.45854    0.71585   1.00
C3       0.24212    0.54170    0.71347   1.00
C2       0.24585    0.39595    0.75349   1.00
C2       0.24368    0.60622    0.74811   1.00
C3       0.25151    0.41811    0.78759   1.00
C3       0.24483    0.58591    0.78378   1.00
C3       0.24040    0.41696    0.71841   1.00
C3       0.24236    0.58336    0.71379   1.00
H1       0.25646    0.47237    0.81233   1.00
H1       0.24503    0.53306    0.81184   1.00
C5       0.23574    0.47835    0.67927   1.00
C5       0.23968    0.51998    0.67778   1.00
H1       0.25590    0.40451    0.81393   1.00
H1       0.24553    0.60091    0.80972   1.00
H1       0.23668    0.40052    0.69399   1.00
H1       0.24121    0.59848    0.68829   1.00
C6       0.22635    0.45515    0.64286   1.00
C6       0.24174    0.54119    0.63907   1.00
H2       0.20417    0.43345    0.64980   1.00
H2       0.26474    0.56310    0.64045   1.00
H2       0.21142    0.47286    0.62119   1.00
H2       0.25230    0.52228    0.61589   1.00
C6       0.26321    0.43606    0.62363   1.00
C6       0.20176    0.55942    0.62635   1.00
H2       0.28146    0.42292    0.64626   1.00
H2       0.18816    0.57383    0.65135   1.00
C6       0.25624    0.40459    0.59126   1.00
C6       0.20219    0.58911    0.59163   1.00
H2       0.28088    0.45949    0.61116   1.00
H2       0.18214    0.53546    0.61877   1.00
C6       0.23673    0.36735    0.60806   1.00
C6       0.22439    0.62708    0.60236   1.00
C6       0.23092    0.42074    0.55747   1.00
C6       0.22059    0.57107    0.55448   1.00
C6       0.29637    0.39245    0.57408   1.00
C6       0.15943    0.60054    0.58191   1.00
H2       0.25358    0.35558    0.63242   1.00
H2       0.21250    0.64020    0.62886   1.00
H2       0.20732    0.37330    0.61851   1.00
H2       0.25529    0.62154    0.60723   1.00
H2       0.23447    0.34459    0.58590   1.00
H2       0.22221    0.64863    0.57902   1.00
H2       0.22856    0.39955    0.53381   1.00
H2       0.21822    0.59098    0.52973   1.00
H2       0.20142    0.42725    0.56744   1.00
H2       0.25149    0.56494    0.55890   1.00
H2       0.24359    0.44745    0.54565   1.00
H2       0.20602    0.54385    0.54676   1.00
H2       0.31529    0.38042    0.59672   1.00
H2       0.14518    0.61383    0.60712   1.00
H2       0.29305    0.37025    0.55146   1.00
H2       0.15822    0.62149    0.55794   1.00
H2       0.31128    0.41739    0.56104   1.00
H2       0.14242    0.57502    0.57332   1.00
C4       0.01975    0.25114    0.75465   1.00
C4       -0.02191   0.25015    0.75585   1.00
C3       0.04103    0.28634    0.74856   1.00
C3       -0.04504   0.28469    0.75514   1.00
C3       0.04146    0.21585    0.75964   1.00
C3       -0.04170   0.21347    0.75788   1.00
C2       0.10405    0.25349    0.75415   1.00
C2       -0.10622   0.24811    0.75632   1.00
C3       0.08189    0.28759    0.74849   1.00
C3       -0.08591   0.28378    0.75517   1.00
C3       0.08304    0.21841    0.75960   1.00
C3       -0.08336   0.21379    0.75764   1.00
H1       0.02763    0.31233    0.74354   1.00
H1       -0.03306   0.31184    0.75497   1.00
C5       0.02165    0.17927    0.76426   1.00
C5       -0.01998   0.17778    0.76032   1.00
H1       0.09549    0.31393    0.74410   1.00
H1       -0.10091   0.30972    0.75447   1.00
H1       0.09948    0.19399    0.76332   1.00
H1       -0.09848   0.18829    0.75879   1.00
C6       0.04485    0.14286    0.77365   1.00
C6       -0.04119   0.13907    0.75826   1.00
H2       0.06655    0.14980    0.79583   1.00
H2       -0.06310   0.14045    0.73526   1.00
H2       0.02714    0.12119    0.78858   1.00
H2       -0.02228   0.11589    0.74770   1.00
C6       0.06394    0.12363    0.73679   1.00
C6       -0.05942   0.12635    0.79824   1.00
H2       0.07708    0.14626    0.71854   1.00
H2       -0.07383   0.15135    0.81184   1.00
C6       0.09541    0.09126    0.74376   1.00
C6       -0.08911   0.09163    0.79781   1.00
H2       0.04051    0.11116    0.71912   1.00
H2       -0.03546   0.11877    0.81786   1.00
C6       0.13265    0.10806    0.76327   1.00
C6       -0.12708   0.10236    0.77561   1.00
C6       0.07926    0.05747    0.76908   1.00
C6       -0.07107   0.05448    0.77941   1.00
C6       0.10755    0.07408    0.70363   1.00
C6       -0.10054   0.08191    0.84057   1.00
H2       0.14442    0.13242    0.74642   1.00
H2       -0.14020   0.12886    0.78750   1.00
H2       0.12670    0.11851    0.79268   1.00
H2       -0.12154   0.10723    0.74471   1.00
H2       0.15541    0.08590    0.76553   1.00
H2       -0.14863   0.07902    0.77779   1.00
H2       0.10045    0.03381    0.77144   1.00
H2       -0.09098   0.02973    0.78178   1.00
H2       0.07275    0.06744    0.79858   1.00
H2       -0.06494   0.05890    0.74851   1.00
H2       0.05255    0.04565    0.75641   1.00
H2       -0.04385   0.04676    0.79398   1.00
H2       0.11958    0.09672    0.68471   1.00
H2       -0.11383   0.10712    0.85482   1.00
H2       0.12975    0.05146    0.70695   1.00
H2       -0.12149   0.05794    0.84178   1.00
H2       0.08261    0.06104    0.68872   1.00
H2       -0.07502   0.07332    0.85758   1.00
C4       0.48025    0.25114    0.74535   1.00
C4       0.52191    0.25015    0.74415   1.00
C3       0.45897    0.28634    0.75144   1.00
C3       0.54504    0.28469    0.74486   1.00
C3       0.45854    0.21585    0.74036   1.00
C3       0.54170    0.21347    0.74212   1.00
C2       0.39595    0.25349    0.74585   1.00
C2       0.60622    0.24811    0.74368   1.00
C3       0.41811    0.28759    0.75151   1.00
C3       0.58591    0.28378    0.74483   1.00
C3       0.41696    0.21841    0.74040   1.00
C3       0.58336    0.21379    0.74236   1.00
H1       0.47237    0.31233    0.75646   1.00
H1       0.53306    0.31184    0.74503   1.00
C5       0.47835    0.17927    0.73574   1.00
C5       0.51998    0.17778    0.73968   1.00
H1       0.40451    0.31393    0.75590   1.00
H1       0.60091    0.30972    0.74553   1.00
H1       0.40052    0.19399    0.73668   1.00
H1       0.59848    0.18829    0.74121   1.00
C6       0.45515    0.14286    0.72635   1.00
C6       0.54119    0.13907    0.74174   1.00
H2       0.43345    0.14980    0.70417   1.00
H2       0.56310    0.14045    0.76474   1.00
H2       0.47286    0.12119    0.71142   1.00
H2       0.52228    0.11589    0.75230   1.00
C6       0.43606    0.12363    0.76321   1.00
C6       0.55942    0.12635    0.70176   1.00
H2       0.42292    0.14626    0.78146   1.00
H2       0.57383    0.15135    0.68816   1.00
C6       0.40459    0.09126    0.75624   1.00
C6       0.58911    0.09163    0.70219   1.00
H2       0.45949    0.11116    0.78088   1.00
H2       0.53546    0.11877    0.68214   1.00
C6       0.36735    0.10806    0.73673   1.00
C6       0.62708    0.10236    0.72439   1.00
C6       0.42074    0.05747    0.73092   1.00
C6       0.57107    0.05448    0.72059   1.00
C6       0.39245    0.07408    0.79637   1.00
C6       0.60054    0.08191    0.65943   1.00
H2       0.35558    0.13242    0.75358   1.00
H2       0.64020    0.12886    0.71250   1.00
H2       0.37330    0.11851    0.70732   1.00
H2       0.62154    0.10723    0.75529   1.00
H2       0.34459    0.08590    0.73447   1.00
H2       0.64863    0.07902    0.72221   1.00
H2       0.39955    0.03381    0.72856   1.00
H2       0.59098    0.02973    0.71822   1.00
H2       0.42725    0.06744    0.70142   1.00
H2       0.56494    0.05890    0.75149   1.00
H2       0.44745    0.04565    0.74359   1.00
H2       0.54385    0.04676    0.70602   1.00
H2       0.38042    0.09672    0.81529   1.00
H2       0.61383    0.10712    0.64518   1.00
H2       0.37025    0.05146    0.79305   1.00
H2       0.62149    0.05794    0.65822   1.00
H2       0.41739    0.06104    0.81128   1.00
H2       0.57502    0.07332    0.64242   1.00
C4       0.25465    0.01975    0.75114   1.00
C4       0.25585    -0.02191   0.75015   1.00
C3       0.24856    0.04103    0.78634   1.00
C3       0.25514    -0.04504   0.78469   1.00
C3       0.25964    0.04146    0.71585   1.00
C3       0.25788    -0.04170   0.71347   1.00
C2       0.25415    0.10405    0.75349   1.00
C2       0.25632    -0.10622   0.74811   1.00
C3       0.24849    0.08189    0.78759   1.00
C3       0.25517    -0.08591   0.78378   1.00
C3       0.25960    0.08304    0.71841   1.00
C3       0.25764    -0.08336   0.71379   1.00
H1       0.24354    0.02763    0.81233   1.00
H1       0.25497    -0.03306   0.81184   1.00
C5       0.26426    0.02165    0.67927   1.00
C5       0.26032    -0.01998   0.67778   1.00
H1       0.24410    0.09549    0.81393   1.00
H1       0.25447    -0.10091   0.80972   1.00
H1       0.26332    0.09948    0.69399   1.00
H1       0.25879    -0.09848   0.68829   1.00
C6       0.27365    0.04485    0.64286   1.00
C6       0.25826    -0.04119   0.63907   1.00
H2       0.29583    0.06655    0.64980   1.00
H2       0.23526    -0.06310   0.64045   1.00
H2       0.28858    0.02714    0.62119   1.00
H2       0.24770    -0.02228   0.61589   1.00
C6       0.23679    0.06394    0.62363   1.00
C6       0.29824    -0.05942   0.62635   1.00
H2       0.21854    0.07708    0.64626   1.00
H2       0.31184    -0.07383   0.65135   1.00
C6       0.24376    0.09541    0.59126   1.00
C6       0.29781    -0.08911   0.59163   1.00
H2       0.21912    0.04051    0.61116   1.00
H2       0.31786    -0.03546   0.61877   1.00
C6       0.26327    0.13265    0.60806   1.00
C6       0.27561    -0.12708   0.60236   1.00
C6       0.26908    0.07926    0.55747   1.00
C6       0.27941    -0.07107   0.55448   1.00
C6       0.20363    0.10755    0.57408   1.00
C6       0.34057    -0.10054   0.58191   1.00
H2       0.24642    0.14442    0.63242   1.00
H2       0.28750    -0.14020   0.62886   1.00
H2       0.29268    0.12670    0.61851   1.00
H2       0.24471    -0.12154   0.60723   1.00
H2       0.26553    0.15541    0.58590   1.00
H2       0.27779    -0.14863   0.57902   1.00
H2       0.27144    0.10045    0.53381   1.00
H2       0.28178    -0.09098   0.52973   1.00
H2       0.29858    0.07275    0.56744   1.00
H2       0.24851    -0.06494   0.55890   1.00
H2       0.25641    0.05255    0.54565   1.00
H2       0.29398    -0.04385   0.54676   1.00
H2       0.18471    0.11958    0.59672   1.00
H2       0.35482    -0.11383   0.60712   1.00
H2       0.20695    0.12975    0.55146   1.00
H2       0.34178    -0.12149   0.55794   1.00
H2       0.18872    0.08261    0.56104   1.00
H2       0.35758    -0.07502   0.57332   1.00
C4       0.25114    0.25465    0.51975   1.00
C4       0.25015    0.25585    0.47809   1.00
C3       0.28634    0.24856    0.54103   1.00
C3       0.28469    0.25514    0.45496   1.00
C3       0.21585    0.25964    0.54146   1.00
C3       0.21347    0.25788    0.45830   1.00
C2       0.25349    0.25415    0.60405   1.00
C2       0.24811    0.25632    0.39378   1.00
C3       0.28759    0.24849    0.58189   1.00
C3       0.28378    0.25517    0.41409   1.00
C3       0.21841    0.25960    0.58304   1.00
C3       0.21379    0.25764    0.41664   1.00
H1       0.31233    0.24354    0.52763   1.00
H1       0.31184    0.25497    0.46694   1.00
C5       0.17927    0.26426    0.52165   1.00
C5       0.17778    0.26032    0.48002   1.00
H1       0.31393    0.24410    0.59549   1.00
H1       0.30972    0.25447    0.39909   1.00
H1       0.19399    0.26332    0.59948   1.00
H1       0.18829    0.25879    0.40152   1.00
C6       0.14286    0.27365    0.54485   1.00
C6       0.13907    0.25826    0.45881   1.00
H2       0.14980    0.29583    0.56655   1.00
H2       0.14045    0.23526    0.43690   1.00
H2       0.12119    0.28858    0.52714   1.00
H2       0.11589    0.24770    0.47772   1.00
C6       0.12363    0.23679    0.56394   1.00
C6       0.12635    0.29824    0.44058   1.00
H2       0.14626    0.21854    0.57708   1.00
H2       0.15135    0.31184    0.42617   1.00
C6       0.09126    0.24376    0.59541   1.00
C6       0.09163    0.29781    0.41089   1.00
H2       0.11116    0.21912    0.54051   1.00
H2       0.11877    0.31786    0.46454   1.00
C6       0.10806    0.26327    0.63265   1.00
C6       0.10236    0.27561    0.37292   1.00
C6       0.05747    0.26908    0.57926   1.00
C6       0.05448    0.27941    0.42893   1.00
C6       0.07408    0.20363    0.60755   1.00
C6       0.08191    0.34057    0.39946   1.00
H2       0.13242    0.24642    0.64442   1.00
H2       0.12886    0.28750    0.35980   1.00
H2       0.11851    0.29268    0.62670   1.00
H2       0.10723    0.24471    0.37846   1.00
H2       0.08590    0.26553    0.65541   1.00
H2       0.07902    0.27779    0.35137   1.00
H2       0.03381    0.27144    0.60045   1.00
H2       0.02973    0.28178    0.40902   1.00
H2       0.06744    0.29858    0.57275   1.00
H2       0.05890    0.24851    0.43506   1.00
H2       0.04565    0.25641    0.55255   1.00
H2       0.04676    0.29398    0.45615   1.00
H2       0.09672    0.18471    0.61958   1.00
H2       0.10712    0.35482    0.38617   1.00
H2       0.05146    0.20695    0.62975   1.00
H2       0.05794    0.34178    0.37851   1.00
H2       0.06104    0.18872    0.58261   1.00
H2       0.07332    0.35758    0.42498   1.00
C4       0.25114    0.74535    0.48025   1.00
C4       0.25015    0.74415    0.52191   1.00
C3       0.28634    0.75144    0.45897   1.00
C3       0.28469    0.74486    0.54504   1.00
C3       0.21585    0.74036    0.45854   1.00
C3       0.21347    0.74212    0.54170   1.00
C2       0.25349    0.74585    0.39595   1.00
C2       0.24811    0.74368    0.60622   1.00
C3       0.28759    0.75151    0.41811   1.00
C3       0.28378    0.74483    0.58591   1.00
C3       0.21841    0.74040    0.41696   1.00
C3       0.21379    0.74236    0.58336   1.00
H1       0.31233    0.75646    0.47237   1.00
H1       0.31184    0.74503    0.53306   1.00
C5       0.17927    0.73574    0.47835   1.00
C5       0.17778    0.73968    0.51998   1.00
H1       0.31393    0.75590    0.40451   1.00
H1       0.30972    0.74553    0.60091   1.00
H1       0.19399    0.73668    0.40052   1.00
H1       0.18829    0.74121    0.59848   1.00
C6       0.14286    0.72635    0.45515   1.00
C6       0.13907    0.74174    0.54119   1.00
H2       0.14980    0.70417    0.43345   1.00
H2       0.14045    0.76474    0.56310   1.00
H2       0.12119    0.71142    0.47286   1.00
H2       0.11589    0.75230    0.52228   1.00
C6       0.12363    0.76321    0.43606   1.00
C6       0.12635    0.70176    0.55942   1.00
H2       0.14626    0.78146    0.42292   1.00
H2       0.15135    0.68816    0.57383   1.00
C6       0.09126    0.75624    0.40459   1.00
C6       0.09163    0.70219    0.58911   1.00
H2       0.11116    0.78088    0.45949   1.00
H2       0.11877    0.68214    0.53546   1.00
C6       0.10806    0.73673    0.36735   1.00
C6       0.10236    0.72439    0.62708   1.00
C6       0.05747    0.73092    0.42074   1.00
C6       0.05448    0.72059    0.57107   1.00
C6       0.07408    0.79637    0.39245   1.00
C6       0.08191    0.65943    0.60054   1.00
H2       0.13242    0.75358    0.35558   1.00
H2       0.12886    0.71250    0.64020   1.00
H2       0.11851    0.70732    0.37330   1.00
H2       0.10723    0.75529    0.62154   1.00
H2       0.08590    0.73447    0.34459   1.00
H2       0.07902    0.72221    0.64863   1.00
H2       0.03381    0.72856    0.39955   1.00
H2       0.02973    0.71822    0.59098   1.00
H2       0.06744    0.70142    0.42725   1.00
H2       0.05890    0.75149    0.56494   1.00
H2       0.04565    0.74359    0.44745   1.00
H2       0.04676    0.70602    0.54385   1.00
H2       0.09672    0.81529    0.38042   1.00
H2       0.10712    0.64518    0.61383   1.00
H2       0.05146    0.79305    0.37025   1.00
H2       0.05794    0.65822    0.62149   1.00
H2       0.06104    0.81128    0.41739   1.00
H2       0.07332    0.64242    0.57502   1.00
C4       0.24535    0.98025    0.25114   1.00
C4       0.24415    1.02191    0.25015   1.00
C3       0.25144    0.95897    0.28634   1.00
C3       0.24486    1.04504    0.28469   1.00
C3       0.24036    0.95854    0.21585   1.00
C3       0.24212    1.04170    0.21347   1.00
C2       0.24585    0.89595    0.25349   1.00
C2       0.24368    1.10622    0.24811   1.00
C3       0.25151    0.91811    0.28759   1.00
C3       0.24483    1.08591    0.28378   1.00
C3       0.24040    0.91696    0.21841   1.00
C3       0.24236    1.08336    0.21379   1.00
H1       0.25646    0.97237    0.31233   1.00
H1       0.24503    1.03306    0.31184   1.00
C5       0.23574    0.97835    0.17927   1.00
C5       0.23968    1.01998    0.17778   1.00
H1       0.25590    0.90451    0.31393   1.00
H1       0.24553    1.10091    0.30972   1.00
H1       0.23668    0.90052    0.19399   1.00
H1       0.24121    1.09848    0.18829   1.00
C6       0.22635    0.95515    0.14286   1.00
C6       0.24174    1.04119    0.13907   1.00
H2       0.20417    0.93345    0.14980   1.00
H2       0.26474    1.06310    0.14045   1.00
H2       0.21142    0.97286    0.12119   1.00
H2       0.25230    1.02228    0.11589   1.00
C6       0.26321    0.93606    0.12363   1.00
C6       0.20176    1.05942    0.12635   1.00
H2       0.28146    0.92292    0.14626   1.00
H2       0.18816    1.07383    0.15135   1.00
C6       0.25624    0.90459    0.09126   1.00
C6       0.20219    1.08911    0.09163   1.00
H2       0.28088    0.95949    0.11116   1.00
H2       0.18214    1.03546    0.11877   1.00
C6       0.23673    0.86735    0.10806   1.00
C6       0.22439    1.12708    0.10236   1.00
C6       0.23092    0.92074    0.05747   1.00
C6       0.22059    1.07107    0.05448   1.00
C6       0.29637    0.89245    0.07408   1.00
C6       0.15943    1.10054    0.08191   1.00
H2       0.25358    0.85558    0.13242   1.00
H2       0.21250    1.14020    0.12886   1.00
H2       0.20732    0.87330    0.11851   1.00
H2       0.25529    1.12154    0.10723   1.00
H2       0.23447    0.84459    0.08590   1.00
H2       0.22221    1.14863    0.07902   1.00
H2       0.22856    0.89955    0.03381   1.00
H2       0.21822    1.09098    0.02973   1.00
H2       0.20142    0.92725    0.06744   1.00
H2       0.25149    1.06494    0.05890   1.00
H2       0.24359    0.94745    0.04565   1.00
H2       0.20602    1.04385    0.04676   1.00
H2       0.31529    0.88042    0.09672   1.00
H2       0.14518    1.11383    0.10712   1.00
H2       0.29305    0.87025    0.05146   1.00
H2       0.15822    1.12149    0.05794   1.00
H2       0.31128    0.91739    0.06104   1.00
H2       0.14242    1.07502    0.07332   1.00
C4       0.01975    0.75114    0.25465   1.00
C4       -0.02191   0.75015    0.25585   1.00
C3       0.04103    0.78634    0.24856   1.00
C3       -0.04504   0.78469    0.25514   1.00
C3       0.04146    0.71585    0.25964   1.00
C3       -0.04170   0.71347    0.25788   1.00
C2       0.10405    0.75349    0.25415   1.00
C2       -0.10622   0.74811    0.25632   1.00
C3       0.08189    0.78759    0.24849   1.00
C3       -0.08591   0.78378    0.25517   1.00
C3       0.08304    0.71841    0.25960   1.00
C3       -0.08336   0.71379    0.25764   1.00
H1       0.02763    0.81233    0.24354   1.00
H1       -0.03306   0.81184    0.25497   1.00
C5       0.02165    0.67927    0.26426   1.00
C5       -0.01998   0.67778    0.26032   1.00
H1       0.09549    0.81393    0.24410   1.00
H1       -0.10091   0.80972    0.25447   1.00
H1       0.09948    0.69399    0.26332   1.00
H1       -0.09848   0.68829    0.25879   1.00
C6       0.04485    0.64286    0.27365   1.00
C6       -0.04119   0.63907    0.25826   1.00
H2       0.06655    0.64980    0.29583   1.00
H2       -0.06310   0.64045    0.23526   1.00
H2       0.02714    0.62119    0.28858   1.00
H2       -0.02228   0.61589    0.24770   1.00
C6       0.06394    0.62363    0.23679   1.00
C6       -0.05942   0.62635    0.29824   1.00
H2       0.07708    0.64626    0.21854   1.00
H2       -0.07383   0.65135    0.31184   1.00
C6       0.09541    0.59126    0.24376   1.00
C6       -0.08911   0.59163    0.29781   1.00
H2       0.04051    0.61116    0.21912   1.00
H2       -0.03546   0.61877    0.31786   1.00
C6       0.13265    0.60806    0.26327   1.00
C6       -0.12708   0.60236    0.27561   1.00
C6       0.07926    0.55747    0.26908   1.00
C6       -0.07107   0.55448    0.27941   1.00
C6       0.10755    0.57408    0.20363   1.00
C6       -0.10054   0.58191    0.34057   1.00
H2       0.14442    0.63242    0.24642   1.00
H2       -0.14020   0.62886    0.28750   1.00
H2       0.12670    0.61851    0.29268   1.00
H2       -0.12154   0.60723    0.24471   1.00
H2       0.15541    0.58590    0.26553   1.00
H2       -0.14863   0.57902    0.27779   1.00
H2       0.10045    0.53381    0.27144   1.00
H2       -0.09098   0.52973    0.28178   1.00
H2       0.07275    0.56744    0.29858   1.00
H2       -0.06494   0.55890    0.24851   1.00
H2       0.05255    0.54565    0.25641   1.00
H2       -0.04385   0.54676    0.29398   1.00
H2       0.11958    0.59672    0.18471   1.00
H2       -0.11383   0.60712    0.35482   1.00
H2       0.12975    0.55146    0.20695   1.00
H2       -0.12149   0.55794    0.34178   1.00
H2       0.08261    0.56104    0.18872   1.00
H2       -0.07502   0.57332    0.35758   1.00
C4       0.48025    0.75114    0.24535   1.00
C4       0.52191    0.75015    0.24415   1.00
C3       0.45897    0.78634    0.25144   1.00
C3       0.54504    0.78469    0.24486   1.00
C3       0.45854    0.71585    0.24036   1.00
C3       0.54170    0.71347    0.24212   1.00
C2       0.39595    0.75349    0.24585   1.00
C2       0.60622    0.74811    0.24368   1.00
C3       0.41811    0.78759    0.25151   1.00
C3       0.58591    0.78378    0.24483   1.00
C3       0.41696    0.71841    0.24040   1.00
C3       0.58336    0.71379    0.24236   1.00
H1       0.47237    0.81233    0.25646   1.00
H1       0.53306    0.81184    0.24503   1.00
C5       0.47835    0.67927    0.23574   1.00
C5       0.51998    0.67778    0.23968   1.00
H1       0.40451    0.81393    0.25590   1.00
H1       0.60091    0.80972    0.24553   1.00
H1       0.40052    0.69399    0.23668   1.00
H1       0.59848    0.68829    0.24121   1.00
C6       0.45515    0.64286    0.22635   1.00
C6       0.54119    0.63907    0.24174   1.00
H2       0.43345    0.64980    0.20417   1.00
H2       0.56310    0.64045    0.26474   1.00
H2       0.47286    0.62119    0.21142   1.00
H2       0.52228    0.61589    0.25230   1.00
C6       0.43606    0.62363    0.26321   1.00
C6       0.55942    0.62635    0.20176   1.00
H2       0.42292    0.64626    0.28146   1.00
H2       0.57383    0.65135    0.18816   1.00
C6       0.40459    0.59126    0.25624   1.00
C6       0.58911    0.59163    0.20219   1.00
H2       0.45949    0.61116    0.28088   1.00
H2       0.53546    0.61877    0.18214   1.00
C6       0.36735    0.60806    0.23673   1.00
C6       0.62708    0.60236    0.22439   1.00
C6       0.42074    0.55747    0.23092   1.00
C6       0.57107    0.55448    0.22059   1.00
C6       0.39245    0.57408    0.29637   1.00
C6       0.60054    0.58191    0.15943   1.00
H2       0.35558    0.63242    0.25358   1.00
H2       0.64020    0.62886    0.21250   1.00
H2       0.37330    0.61851    0.20732   1.00
H2       0.62154    0.60723    0.25529   1.00
H2       0.34459    0.58590    0.23447   1.00
H2       0.64863    0.57902    0.22221   1.00
H2       0.39955    0.53381    0.22856   1.00
H2       0.59098    0.52973    0.21822   1.00
H2       0.42725    0.56744    0.20142   1.00
H2       0.56494    0.55890    0.25149   1.00
H2       0.44745    0.54565    0.24359   1.00
H2       0.54385    0.54676    0.20602   1.00
H2       0.38042    0.59672    0.31529   1.00
H2       0.61383    0.60712    0.14518   1.00
H2       0.37025    0.55146    0.29305   1.00
H2       0.62149    0.55794    0.15822   1.00
H2       0.41739    0.56104    0.31128   1.00
H2       0.57502    0.57332    0.14242   1.00
C4       0.25465    0.51975    0.25114   1.00
C4       0.25585    0.47809    0.25015   1.00
C3       0.24856    0.54103    0.28634   1.00
C3       0.25514    0.45496    0.28469   1.00
C3       0.25964    0.54146    0.21585   1.00
C3       0.25788    0.45830    0.21347   1.00
C2       0.25415    0.60405    0.25349   1.00
C2       0.25632    0.39378    0.24811   1.00
C3       0.24849    0.58189    0.28759   1.00
C3       0.25517    0.41409    0.28378   1.00
C3       0.25960    0.58304    0.21841   1.00
C3       0.25764    0.41664    0.21379   1.00
H1       0.24354    0.52763    0.31233   1.00
H1       0.25497    0.46694    0.31184   1.00
C5       0.26426    0.52165    0.17927   1.00
C5       0.26032    0.48002    0.17778   1.00
H1       0.24410    0.59549    0.31393   1.00
H1       0.25447    0.39909    0.30972   1.00
H1       0.26332    0.59948    0.19399   1.00
H1       0.25879    0.40152    0.18829   1.00
C6       0.27365    0.54485    0.14286   1.00
C6       0.25826    0.45881    0.13907   1.00
H2       0.29583    0.56655    0.14980   1.00
H2       0.23526    0.43690    0.14045   1.00
H2       0.28858    0.52714    0.12119   1.00
H2       0.24770    0.47772    0.11589   1.00
C6       0.23679    0.56394    0.12363   1.00
C6       0.29824    0.44058    0.12635   1.00
H2       0.21854    0.57708    0.14626   1.00
H2       0.31184    0.42617    0.15135   1.00
C6       0.24376    0.59541    0.09126   1.00
C6       0.29781    0.41089    0.09163   1.00
H2       0.21912    0.54051    0.11116   1.00
H2       0.31786    0.46454    0.11877   1.00
C6       0.26327    0.63265    0.10806   1.00
C6       0.27561    0.37292    0.10236   1.00
C6       0.26908    0.57926    0.05747   1.00
C6       0.27941    0.42893    0.05448   1.00
C6       0.20363    0.60755    0.07408   1.00
C6       0.34057    0.39946    0.08191   1.00
H2       0.24642    0.64442    0.13242   1.00
H2       0.28750    0.35980    0.12886   1.00
H2       0.29268    0.62670    0.11851   1.00
H2       0.24471    0.37846    0.10723   1.00
H2       0.26553    0.65541    0.08590   1.00
H2       0.27779    0.35137    0.07902   1.00
H2       0.27144    0.60045    0.03381   1.00
H2       0.28178    0.40902    0.02973   1.00
H2       0.29858    0.57275    0.06744   1.00
H2       0.24851    0.43506    0.05890   1.00
H2       0.25641    0.55255    0.04565   1.00
H2       0.29398    0.45615    0.04676   1.00
H2       0.18471    0.61958    0.09672   1.00
H2       0.35482    0.38617    0.10712   1.00
H2       0.20695    0.62975    0.05146   1.00
H2       0.34178    0.37851    0.05794   1.00
H2       0.18872    0.58261    0.06104   1.00
H2       0.35758    0.42498    0.07332   1.00
C4       0.25114    0.75465    0.01975   1.00
C4       0.25015    0.75585    -0.02191   1.00
C3       0.28634    0.74856    0.04103   1.00
C3       0.28469    0.75514    -0.04504   1.00
C3       0.21585    0.75964    0.04146   1.00
C3       0.21347    0.75788    -0.04170   1.00
C2       0.25349    0.75415    0.10405   1.00
C2       0.24811    0.75632    -0.10622   1.00
C3       0.28759    0.74849    0.08189   1.00
C3       0.28378    0.75517    -0.08591   1.00
C3       0.21841    0.75960    0.08304   1.00
C3       0.21379    0.75764    -0.08336   1.00
H1       0.31233    0.74354    0.02763   1.00
H1       0.31184    0.75497    -0.03306   1.00
C5       0.17927    0.76426    0.02165   1.00
C5       0.17778    0.76032    -0.01998   1.00
H1       0.31393    0.74410    0.09549   1.00
H1       0.30972    0.75447    -0.10091   1.00
H1       0.19399    0.76332    0.09948   1.00
H1       0.18829    0.75879    -0.09848   1.00
C6       0.14286    0.77365    0.04485   1.00
C6       0.13907    0.75826    -0.04119   1.00
H2       0.14980    0.79583    0.06655   1.00
H2       0.14045    0.73526    -0.06310   1.00
H2       0.12119    0.78858    0.02714   1.00
H2       0.11589    0.74770    -0.02228   1.00
C6       0.12363    0.73679    0.06394   1.00
C6       0.12635    0.79824    -0.05942   1.00
H2       0.14626    0.71854    0.07708   1.00
H2       0.15135    0.81184    -0.07383   1.00
C6       0.09126    0.74376    0.09541   1.00
C6       0.09163    0.79781    -0.08911   1.00
H2       0.11116    0.71912    0.04051   1.00
H2       0.11877    0.81786    -0.03546   1.00
C6       0.10806    0.76327    0.13265   1.00
C6       0.10236    0.77561    -0.12708   1.00
C6       0.05747    0.76908    0.07926   1.00
C6       0.05448    0.77941    -0.07107   1.00
C6       0.07408    0.70363    0.10755   1.00
C6       0.08191    0.84057    -0.10054   1.00
H2       0.13242    0.74642    0.14442   1.00
H2       0.12886    0.78750    -0.14020   1.00
H2       0.11851    0.79268    0.12670   1.00
H2       0.10723    0.74471    -0.12154   1.00
H2       0.08590    0.76553    0.15541   1.00
H2       0.07902    0.77779    -0.14863   1.00
H2       0.03381    0.77144    0.10045   1.00
H2       0.02973    0.78178    -0.09098   1.00
H2       0.06744    0.79858    0.07275   1.00
H2       0.05890    0.74851    -0.06494   1.00
H2       0.04565    0.75641    0.05255   1.00
H2       0.04676    0.79398    -0.04385   1.00
H2       0.09672    0.68471    0.11958   1.00
H2       0.10712    0.85482    -0.11383   1.00
H2       0.05146    0.70695    0.12975   1.00
H2       0.05794    0.84178    -0.12149   1.00
H2       0.06104    0.68872    0.08261   1.00
H2       0.07332    0.85758    -0.07502   1.00
C4       0.75114    0.24535    0.48025   1.00
C4       0.75015    0.24415    0.52191   1.00
C3       0.78634    0.25144    0.45897   1.00
C3       0.78469    0.24486    0.54504   1.00
C3       0.71585    0.24036    0.45854   1.00
C3       0.71347    0.24212    0.54170   1.00
C2       0.75349    0.24585    0.39595   1.00
C2       0.74811    0.24368    0.60622   1.00
C3       0.78759    0.25151    0.41811   1.00
C3       0.78378    0.24483    0.58591   1.00
C3       0.71841    0.24040    0.41696   1.00
C3       0.71379    0.24236    0.58336   1.00
H1       0.81233    0.25646    0.47237   1.00
H1       0.81184    0.24503    0.53306   1.00
C5       0.67927    0.23574    0.47835   1.00
C5       0.67778    0.23968    0.51998   1.00
H1       0.81393    0.25590    0.40451   1.00
H1       0.80972    0.24553    0.60091   1.00
H1       0.69399    0.23668    0.40052   1.00
H1       0.68829    0.24121    0.59848   1.00
C6       0.64286    0.22635    0.45515   1.00
C6       0.63907    0.24174    0.54119   1.00
H2       0.64980    0.20417    0.43345   1.00
H2       0.64045    0.26474    0.56310   1.00
H2       0.62119    0.21142    0.47286   1.00
H2       0.61589    0.25230    0.52228   1.00
C6       0.62363    0.26321    0.43606   1.00
C6       0.62635    0.20176    0.55942   1.00
H2       0.64626    0.28146    0.42292   1.00
H2       0.65135    0.18816    0.57383   1.00
C6       0.59126    0.25624    0.40459   1.00
C6       0.59163    0.20219    0.58911   1.00
H2       0.61116    0.28088    0.45949   1.00
H2       0.61877    0.18214    0.53546   1.00
C6       0.60806    0.23673    0.36735   1.00
C6       0.60236    0.22439    0.62708   1.00
C6       0.55747    0.23092    0.42074   1.00
C6       0.55448    0.22059    0.57107   1.00
C6       0.57408    0.29637    0.39245   1.00
C6       0.58191    0.15943    0.60054   1.00
H2       0.63242    0.25358    0.35558   1.00
H2       0.62886    0.21250    0.64020   1.00
H2       0.61851    0.20732    0.37330   1.00
H2       0.60723    0.25529    0.62154   1.00
H2       0.58590    0.23447    0.34459   1.00
H2       0.57902    0.22221    0.64863   1.00
H2       0.53381    0.22856    0.39955   1.00
H2       0.52973    0.21822    0.59098   1.00
H2       0.56744    0.20142    0.42725   1.00
H2       0.55890    0.25149    0.56494   1.00
H2       0.54565    0.24359    0.44745   1.00
H2       0.54676    0.20602    0.54385   1.00
H2       0.59672    0.31529    0.38042   1.00
H2       0.60712    0.14518    0.61383   1.00
H2       0.55146    0.29305    0.37025   1.00
H2       0.55794    0.15822    0.62149   1.00
H2       0.56104    0.31128    0.41739   1.00
H2       0.57332    0.14242    0.57502   1.00
C4       0.74535    0.48025    0.25114   1.00
C4       0.74415    0.52191    0.25015   1.00
C3       0.75144    0.45897    0.28634   1.00
C3       0.74486    0.54504    0.28469   1.00
C3       0.74036    0.45854    0.21585   1.00
C3       0.74212    0.54170    0.21347   1.00
C2       0.74585    0.39595    0.25349   1.00
C2       0.74368    0.60622    0.24811   1.00
C3       0.75151    0.41811    0.28759   1.00
C3       0.74483    0.58591    0.28378   1.00
C3       0.74040    0.41696    0.21841   1.00
C3       0.74236    0.58336    0.21379   1.00
H1       0.75646    0.47237    0.31233   1.00
H1       0.74503    0.53306    0.31184   1.00
C5       0.73574    0.47835    0.17927   1.00
C5       0.73968    0.51998    0.17778   1.00
H1       0.75590    0.40451    0.31393   1.00
H1       0.74553    0.60091    0.30972   1.00
H1       0.73668    0.40052    0.19399   1.00
H1       0.74121    0.59848    0.18829   1.00
C6       0.72635    0.45515    0.14286   1.00
C6       0.74174    0.54119    0.13907   1.00
H2       0.70417    0.43345    0.14980   1.00
H2       0.76474    0.56310    0.14045   1.00
H2       0.71142    0.47286    0.12119   1.00
H2       0.75230    0.52228    0.11589   1.00
C6       0.76321    0.43606    0.12363   1.00
C6       0.70176    0.55942    0.12635   1.00
H2       0.78146    0.42292    0.14626   1.00
H2       0.68816    0.57383    0.15135   1.00
C6       0.75624    0.40459    0.09126   1.00
C6       0.70219    0.58911    0.09163   1.00
H2       0.78088    0.45949    0.11116   1.00
H2       0.68214    0.53546    0.11877   1.00
C6       0.73673    0.36735    0.10806   1.00
C6       0.72439    0.62708    0.10236   1.00
C6       0.73092    0.42074    0.05747   1.00
C6       0.72059    0.57107    0.05448   1.00
C6       0.79637    0.39245    0.07408   1.00
C6       0.65943    0.60054    0.08191   1.00
H2       0.75358    0.35558    0.13242   1.00
H2       0.71250    0.64020    0.12886   1.00
H2       0.70732    0.37330    0.11851   1.00
H2       0.75529    0.62154    0.10723   1.00
H2       0.73447    0.34459    0.08590   1.00
H2       0.72221    0.64863    0.07902   1.00
H2       0.72856    0.39955    0.03381   1.00
H2       0.71822    0.59098    0.02973   1.00
H2       0.70142    0.42725    0.06744   1.00
H2       0.75149    0.56494    0.05890   1.00
H2       0.74359    0.44745    0.04565   1.00
H2       0.70602    0.54385    0.04676   1.00
H2       0.81529    0.38042    0.09672   1.00
H2       0.64518    0.61383    0.10712   1.00
H2       0.79305    0.37025    0.05146   1.00
H2       0.65822    0.62149    0.05794   1.00
H2       0.81128    0.41739    0.06104   1.00
H2       0.64242    0.57502    0.07332   1.00
C4       0.51975    0.25114    0.25465   1.00
C4       0.47809    0.25015    0.25585   1.00
C3       0.54103    0.28634    0.24856   1.00
C3       0.45496    0.28469    0.25514   1.00
C3       0.54146    0.21585    0.25964   1.00
C3       0.45830    0.21347    0.25788   1.00
C2       0.60405    0.25349    0.25415   1.00
C2       0.39378    0.24811    0.25632   1.00
C3       0.58189    0.28759    0.24849   1.00
C3       0.41409    0.28378    0.25517   1.00
C3       0.58304    0.21841    0.25960   1.00
C3       0.41664    0.21379    0.25764   1.00
H1       0.52763    0.31233    0.24354   1.00
H1       0.46694    0.31184    0.25497   1.00
C5       0.52165    0.17927    0.26426   1.00
C5       0.48002    0.17778    0.26032   1.00
H1       0.59549    0.31393    0.24410   1.00
H1       0.39909    0.30972    0.25447   1.00
H1       0.59948    0.19399    0.26332   1.00
H1       0.40152    0.18829    0.25879   1.00
C6       0.54485    0.14286    0.27365   1.00
C6       0.45881    0.13907    0.25826   1.00
H2       0.56655    0.14980    0.29583   1.00
H2       0.43690    0.14045    0.23526   1.00
H2       0.52714    0.12119    0.28858   1.00
H2       0.47772    0.11589    0.24770   1.00
C6       0.56394    0.12363    0.23679   1.00
C6       0.44058    0.12635    0.29824   1.00
H2       0.57708    0.14626    0.21854   1.00
H2       0.42617    0.15135    0.31184   1.00
C6       0.59541    0.09126    0.24376   1.00
C6       0.41089    0.09163    0.29781   1.00
H2       0.54051    0.11116    0.21912   1.00
H2       0.46454    0.11877    0.31786   1.00
C6       0.63265    0.10806    0.26327   1.00
C6       0.37292    0.10236    0.27561   1.00
C6       0.57926    0.05747    0.26908   1.00
C6       0.42893    0.05448    0.27941   1.00
C6       0.60755    0.07408    0.20363   1.00
C6       0.39946    0.08191    0.34057   1.00
H2       0.64442    0.13242    0.24642   1.00
H2       0.35980    0.12886    0.28750   1.00
H2       0.62670    0.11851    0.29268   1.00
H2       0.37846    0.10723    0.24471   1.00
H2       0.65541    0.08590    0.26553   1.00
H2       0.35137    0.07902    0.27779   1.00
H2       0.60045    0.03381    0.27144   1.00
H2       0.40902    0.02973    0.28178   1.00
H2       0.57275    0.06744    0.29858   1.00
H2       0.43506    0.05890    0.24851   1.00
H2       0.55255    0.04565    0.25641   1.00
H2       0.45615    0.04676    0.29398   1.00
H2       0.61958    0.09672    0.18471   1.00
H2       0.38617    0.10712    0.35482   1.00
H2       0.62975    0.05146    0.20695   1.00
H2       0.37851    0.05794    0.34178   1.00
H2       0.58261    0.06104    0.18872   1.00
H2       0.42498    0.07332    0.35758   1.00
C4       0.98025    0.25114    0.24535   1.00
C4       1.02191    0.25015    0.24415   1.00
C3       0.95897    0.28634    0.25144   1.00
C3       1.04504    0.28469    0.24486   1.00
C3       0.95854    0.21585    0.24036   1.00
C3       1.04170    0.21347    0.24212   1.00
C2       0.89595    0.25349    0.24585   1.00
C2       1.10622    0.24811    0.24368   1.00
C3       0.91811    0.28759    0.25151   1.00
C3       1.08591    0.28378    0.24483   1.00
C3       0.91696    0.21841    0.24040   1.00
C3       1.08336    0.21379    0.24236   1.00
H1       0.97237    0.31233    0.25646   1.00
H1       1.03306    0.31184    0.24503   1.00
C5       0.97835    0.17927    0.23574   1.00
C5       1.01998    0.17778    0.23968   1.00
H1       0.90451    0.31393    0.25590   1.00
H1       1.10091    0.30972    0.24553   1.00
H1       0.90052    0.19399    0.23668   1.00
H1       1.09848    0.18829    0.24121   1.00
C6       0.95515    0.14286    0.22635   1.00
C6       1.04119    0.13907    0.24174   1.00
H2       0.93345    0.14980    0.20417   1.00
H2       1.06310    0.14045    0.26474   1.00
H2       0.97286    0.12119    0.21142   1.00
H2       1.02228    0.11589    0.25230   1.00
C6       0.93606    0.12363    0.26321   1.00
C6       1.05942    0.12635    0.20176   1.00
H2       0.92292    0.14626    0.28146   1.00
H2       1.07383    0.15135    0.18816   1.00
C6       0.90459    0.09126    0.25624   1.00
C6       1.08911    0.09163    0.20219   1.00
H2       0.95949    0.11116    0.28088   1.00
H2       1.03546    0.11877    0.18214   1.00
C6       0.86735    0.10806    0.23673   1.00
C6       1.12708    0.10236    0.22439   1.00
C6       0.92074    0.05747    0.23092   1.00
C6       1.07107    0.05448    0.22059   1.00
C6       0.89245    0.07408    0.29637   1.00
C6       1.10054    0.08191    0.15943   1.00
H2       0.85558    0.13242    0.25358   1.00
H2       1.14020    0.12886    0.21250   1.00
H2       0.87330    0.11851    0.20732   1.00
H2       1.12154    0.10723    0.25529   1.00
H2       0.84459    0.08590    0.23447   1.00
H2       1.14863    0.07902    0.22221   1.00
H2       0.89955    0.03381    0.22856   1.00
H2       1.09098    0.02973    0.21822   1.00
H2       0.92725    0.06744    0.20142   1.00
H2       1.06494    0.05890    0.25149   1.00
H2       0.94745    0.04565    0.24359   1.00
H2       1.04385    0.04676    0.20602   1.00
H2       0.88042    0.09672    0.31529   1.00
H2       1.11383    0.10712    0.14518   1.00
H2       0.87025    0.05146    0.29305   1.00
H2       1.12149    0.05794    0.15822   1.00
H2       0.91739    0.06104    0.31128   1.00
H2       1.07502    0.07332    0.14242   1.00
C4       0.75465    0.01975    0.25114   1.00
C4       0.75585    -0.02191   0.25015   1.00
C3       0.74856    0.04103    0.28634   1.00
C3       0.75514    -0.04504   0.28469   1.00
C3       0.75964    0.04146    0.21585   1.00
C3       0.75788    -0.04170   0.21347   1.00
C2       0.75415    0.10405    0.25349   1.00
C2       0.75632    -0.10622   0.24811   1.00
C3       0.74849    0.08189    0.28759   1.00
C3       0.75517    -0.08591   0.28378   1.00
C3       0.75960    0.08304    0.21841   1.00
C3       0.75764    -0.08336   0.21379   1.00
H1       0.74354    0.02763    0.31233   1.00
H1       0.75497    -0.03306   0.31184   1.00
C5       0.76426    0.02165    0.17927   1.00
C5       0.76032    -0.01998   0.17778   1.00
H1       0.74410    0.09549    0.31393   1.00
H1       0.75447    -0.10091   0.30972   1.00
H1       0.76332    0.09948    0.19399   1.00
H1       0.75879    -0.09848   0.18829   1.00
C6       0.77365    0.04485    0.14286   1.00
C6       0.75826    -0.04119   0.13907   1.00
H2       0.79583    0.06655    0.14980   1.00
H2       0.73526    -0.06310   0.14045   1.00
H2       0.78858    0.02714    0.12119   1.00
H2       0.74770    -0.02228   0.11589   1.00
C6       0.73679    0.06394    0.12363   1.00
C6       0.79824    -0.05942   0.12635   1.00
H2       0.71854    0.07708    0.14626   1.00
H2       0.81184    -0.07383   0.15135   1.00
C6       0.74376    0.09541    0.09126   1.00
C6       0.79781    -0.08911   0.09163   1.00
H2       0.71912    0.04051    0.11116   1.00
H2       0.81786    -0.03546   0.11877   1.00
C6       0.76327    0.13265    0.10806   1.00
C6       0.77561    -0.12708   0.10236   1.00
C6       0.76908    0.07926    0.05747   1.00
C6       0.77941    -0.07107   0.05448   1.00
C6       0.70363    0.10755    0.07408   1.00
C6       0.84057    -0.10054   0.08191   1.00
H2       0.74642    0.14442    0.13242   1.00
H2       0.78750    -0.14020   0.12886   1.00
H2       0.79268    0.12670    0.11851   1.00
H2       0.74471    -0.12154   0.10723   1.00
H2       0.76553    0.15541    0.08590   1.00
H2       0.77779    -0.14863   0.07902   1.00
H2       0.77144    0.10045    0.03381   1.00
H2       0.78178    -0.09098   0.02973   1.00
H2       0.79858    0.07275    0.06744   1.00
H2       0.74851    -0.06494   0.05890   1.00
H2       0.75641    0.05255    0.04565   1.00
H2       0.79398    -0.04385   0.04676   1.00
H2       0.68471    0.11958    0.09672   1.00
H2       0.85482    -0.11383   0.10712   1.00
H2       0.70695    0.12975    0.05146   1.00
H2       0.84178    -0.12149   0.05794   1.00
H2       0.68872    0.08261    0.06104   1.00
H2       0.85758    -0.07502   0.07332   1.00
C4       0.75114    0.25465    0.01975   1.00
C4       0.75015    0.25585    -0.02191   1.00
C3       0.78634    0.24856    0.04103   1.00
C3       0.78469    0.25514    -0.04504   1.00
C3       0.71585    0.25964    0.04146   1.00
C3       0.71347    0.25788    -0.04170   1.00
C2       0.75349    0.25415    0.10405   1.00
C2       0.74811    0.25632    -0.10622   1.00
C3       0.78759    0.24849    0.08189   1.00
C3       0.78378    0.25517    -0.08591   1.00
C3       0.71841    0.25960    0.08304   1.00
C3       0.71379    0.25764    -0.08336   1.00
H1       0.81233    0.24354    0.02763   1.00
H1       0.81184    0.25497    -0.03306   1.00
C5       0.67927    0.26426    0.02165   1.00
C5       0.67778    0.26032    -0.01998   1.00
H1       0.81393    0.24410    0.09549   1.00
H1       0.80972    0.25447    -0.10091   1.00
H1       0.69399    0.26332    0.09948   1.00
H1       0.68829    0.25879    -0.09848   1.00
C6       0.64286    0.27365    0.04485   1.00
C6       0.63907    0.25826    -0.04119   1.00
H2       0.64980    0.29583    0.06655   1.00
H2       0.64045    0.23526    -0.06310   1.00
H2       0.62119    0.28858    0.02714   1.00
H2       0.61589    0.24770    -0.02228   1.00
C6       0.62363    0.23679    0.06394   1.00
C6       0.62635    0.29824    -0.05942   1.00
H2       0.64626    0.21854    0.07708   1.00
H2       0.65135    0.31184    -0.07383   1.00
C6       0.59126    0.24376    0.09541   1.00
C6       0.59163    0.29781    -0.08911   1.00
H2       0.61116    0.21912    0.04051   1.00
H2       0.61877    0.31786    -0.03546   1.00
C6       0.60806    0.26327    0.13265   1.00
C6       0.60236    0.27561    -0.12708   1.00
C6       0.55747    0.26908    0.07926   1.00
C6       0.55448    0.27941    -0.07107   1.00
C6       0.57408    0.20363    0.10755   1.00
C6       0.58191    0.34057    -0.10054   1.00
H2       0.63242    0.24642    0.14442   1.00
H2       0.62886    0.28750    -0.14020   1.00
H2       0.61851    0.29268    0.12670   1.00
H2       0.60723    0.24471    -0.12154   1.00
H2       0.58590    0.26553    0.15541   1.00
H2       0.57902    0.27779    -0.14863   1.00
H2       0.53381    0.27144    0.10045   1.00
H2       0.52973    0.28178    -0.09098   1.00
H2       0.56744    0.29858    0.07275   1.00
H2       0.55890    0.24851    -0.06494   1.00
H2       0.54565    0.25641    0.05255   1.00
H2       0.54676    0.29398    -0.04385   1.00
H2       0.59672    0.18471    0.11958   1.00
H2       0.60712    0.35482    -0.11383   1.00
H2       0.55146    0.20695    0.12975   1.00
H2       0.55794    0.34178    -0.12149   1.00
H2       0.56104    0.18872    0.08261   1.00
H2       0.57332    0.35758    -0.07502   1.00
