data_IRMOF10_interpen_symm_ligand3lp_label_f_1.

_audit_creation_method             'generated by an auxiliary program of Tobunporous'

_symmetry_space_group_name_H-M     'P 1'
_symmetry_Int_Tables_number        1
_symmetry_cell_setting             triclinic

_cell_length_a                    22.6523
_cell_length_b                    22.6523
_cell_length_c                    65.9502
_cell_angle_alpha                 90.0000
_cell_angle_beta                  90.0000
_cell_angle_gamma                 120.0000

loop_
_atom_site_label
_atom_site_fract_x
_atom_site_fract_y
_atom_site_fract_z
_atom_site_occupancy
O1       0.00000    -0.00000   0.62500   1.00
Zn1      0.00000    -0.00000   0.59589   1.00
Zn1      0.94848    1.04288    0.63392   1.00
Zn1      0.09439    0.05152    0.63392   1.00
Zn1      -0.04288   0.90561    0.63392   1.00
O2       0.93860    0.02610    0.58587   1.00
O2       0.08750    0.06140    0.58587   1.00
O2       -0.02610   0.91250    0.58587   1.00
O2       0.91305    0.07161    0.61181   1.00
O2       0.00462    0.12022    0.65110   1.00
O2       0.87413    0.98074    0.65071   1.00
O2       0.15856    0.08695    0.61181   1.00
O2       0.10660    0.12587    0.65071   1.00
O2       0.11559    0.99538    0.65110   1.00
O2       -0.07161   0.84144    0.61181   1.00
O2       0.87978    0.88441    0.65110   1.00
O2       0.01926    0.89340    0.65071   1.00
C1       0.91390    0.06020    0.59358   1.00
C1       0.14630    0.08610    0.59358   1.00
C1       -0.06020   0.85370    0.59358   1.00
C1       0.06663    0.14397    0.65673   1.00
C1       0.85603    0.92267    0.65673   1.00
C1       0.07733    0.93337    0.65673   1.00
O1       -0.00000   0.00000    0.87500   1.00
Zn1      -0.00000   0.00000    0.90411   1.00
Zn1      1.04288    0.94848    0.86608   1.00
Zn1      0.05152    0.09439    0.86608   1.00
Zn1      0.90561    -0.04288   0.86608   1.00
O2       0.02610    0.93860    0.91413   1.00
O2       0.06140    0.08750    0.91413   1.00
O2       0.91250    -0.02610   0.91413   1.00
O2       0.07161    0.91305    0.88819   1.00
O2       0.12022    0.00462    0.84890   1.00
O2       0.98074    0.87413    0.84929   1.00
O2       0.08695    0.15856    0.88819   1.00
O2       0.12587    0.10660    0.84929   1.00
O2       0.99538    0.11559    0.84890   1.00
O2       0.84144    -0.07161   0.88819   1.00
O2       0.88441    0.87978    0.84890   1.00
O2       0.89340    0.01926    0.84929   1.00
C1       0.06020    0.91390    0.90642   1.00
C1       0.08610    0.14630    0.90642   1.00
C1       0.85370    -0.06020   0.90642   1.00
C1       0.14397    0.06663    0.84327   1.00
C1       0.92267    0.85603    0.84327   1.00
C1       0.93337    0.07733    0.84327   1.00
O1       0.00000    0.00000    0.37500   1.00
Zn1      0.00000    0.00000    0.40411   1.00
Zn1      0.05152    -0.04288   0.36608   1.00
Zn1      0.90561    0.94848    0.36608   1.00
Zn1      1.04288    0.09439    0.36608   1.00
O2       0.06140    -0.02610   0.41413   1.00
O2       0.91250    0.93860    0.41413   1.00
O2       0.02610    0.08750    0.41413   1.00
O2       0.08695    -0.07161   0.38819   1.00
O2       0.99538    0.87978    0.34890   1.00
O2       0.12587    0.01926    0.34929   1.00
O2       0.84144    0.91305    0.38819   1.00
O2       0.89340    0.87413    0.34929   1.00
O2       0.88441    0.00462    0.34890   1.00
O2       0.07161    0.15856    0.38819   1.00
O2       0.12022    0.11559    0.34890   1.00
O2       0.98074    0.10660    0.34929   1.00
C1       0.08610    -0.06020   0.40642   1.00
C1       0.85370    0.91390    0.40642   1.00
C1       0.06020    0.14630    0.40642   1.00
C1       0.93337    0.85603    0.34327   1.00
C1       0.14397    0.07733    0.34327   1.00
C1       0.92267    0.06663    0.34327   1.00
O1       0.00000    0.00000    0.12500   1.00
Zn1      0.00000    0.00000    0.09589   1.00
Zn1      -0.04288   0.05152    0.13392   1.00
Zn1      0.94848    0.90561    0.13392   1.00
Zn1      0.09439    1.04288    0.13392   1.00
O2       -0.02610   0.06140    0.08587   1.00
O2       0.93860    0.91250    0.08587   1.00
O2       0.08750    0.02610    0.08587   1.00
O2       -0.07161   0.08695    0.11181   1.00
O2       0.87978    0.99538    0.15110   1.00
O2       0.01926    0.12587    0.15071   1.00
O2       0.91305    0.84144    0.11181   1.00
O2       0.87413    0.89340    0.15071   1.00
O2       0.00462    0.88441    0.15110   1.00
O2       0.15856    0.07161    0.11181   1.00
O2       0.11559    0.12022    0.15110   1.00
O2       0.10660    0.98074    0.15071   1.00
C1       -0.06020   0.08610    0.09358   1.00
C1       0.91390    0.85370    0.09358   1.00
C1       0.14630    0.06020    0.09358   1.00
C1       0.85603    0.93337    0.15673   1.00
C1       0.07733    0.14397    0.15673   1.00
C1       0.06663    0.92267    0.15673   1.00
O1       0.66667    0.33333    0.95833   1.00
Zn1      0.66667    0.33333    0.92922   1.00
Zn1      0.61515    0.37621    0.96725   1.00
Zn1      0.76106    0.38485    0.96725   1.00
Zn1      -0.37621   0.23894    0.96725   1.00
O2       0.60527    0.35943    0.91920   1.00
O2       0.75417    0.39473    0.91920   1.00
O2       0.64057    0.24583    0.91920   1.00
O2       0.57972    0.40494    0.94514   1.00
O2       0.67129    0.45355    0.98443   1.00
O2       0.54080    0.31407    0.98404   1.00
O2       0.82523    0.42028    0.94514   1.00
O2       0.77327    0.45920    0.98404   1.00
O2       -0.21774   0.32871    0.98443   1.00
O2       0.59506    0.17477    0.94514   1.00
O2       0.54645    0.21774    0.98443   1.00
O2       -0.31407   0.22673    0.98404   1.00
C1       0.58057    0.39353    0.92691   1.00
C1       0.81297    0.41943    0.92691   1.00
C1       0.60647    0.18703    0.92691   1.00
C1       0.73330    0.47730    0.99006   1.00
C1       0.52270    0.25600    0.99006   1.00
C1       -0.25600   0.26670    0.99006   1.00
O1       0.66667    0.33333    0.20833   1.00
Zn1      0.66667    0.33333    0.23744   1.00
Zn1      0.70954    0.28182    0.19942   1.00
Zn1      0.71818    0.42773    0.19942   1.00
Zn1      0.57227    0.29046    0.19942   1.00
O2       0.69277    0.27193    0.24746   1.00
O2       0.72807    0.42083    0.24746   1.00
O2       0.57917    0.30723    0.24746   1.00
O2       0.73828    0.24638    0.22152   1.00
O2       0.78688    0.33796    0.18224   1.00
O2       0.64740    0.20747    0.18263   1.00
O2       0.75362    0.49189    0.22152   1.00
O2       0.79253    0.43994    0.18263   1.00
O2       0.66204    0.44893    0.18224   1.00
O2       0.50811    0.26172    0.22152   1.00
O2       0.55107    0.21312    0.18224   1.00
O2       0.56006    0.35260    0.18263   1.00
C1       0.72687    0.24723    0.23975   1.00
C1       0.75277    0.47963    0.23975   1.00
C1       0.52037    0.27313    0.23975   1.00
C1       0.81063    0.39997    0.17661   1.00
C1       0.58933    0.18937    0.17661   1.00
C1       0.60003    0.41067    0.17661   1.00
O1       0.66667    0.33333    0.70833   1.00
Zn1      0.66667    0.33333    0.73744   1.00
Zn1      0.71818    0.29046    0.69942   1.00
Zn1      0.57227    0.28182    0.69942   1.00
Zn1      0.70954    0.42773    0.69942   1.00
O2       0.72807    0.30723    0.74746   1.00
O2       0.57917    0.27193    0.74746   1.00
O2       0.69277    0.42083    0.74746   1.00
O2       0.75362    0.26172    0.72152   1.00
O2       0.66204    0.21312    0.68224   1.00
O2       0.79253    0.35260    0.68263   1.00
O2       0.50811    0.24638    0.72152   1.00
O2       0.56006    0.20747    0.68263   1.00
O2       0.55107    0.33796    0.68224   1.00
O2       0.73828    0.49189    0.72152   1.00
O2       0.78688    0.44893    0.68224   1.00
O2       0.64740    0.43994    0.68263   1.00
C1       0.75277    0.27313    0.73975   1.00
C1       0.52037    0.24723    0.73975   1.00
C1       0.72687    0.47963    0.73975   1.00
C1       0.60003    0.18937    0.67661   1.00
C1       0.81063    0.41067    0.67661   1.00
C1       0.58933    0.39997    0.67661   1.00
O1       0.66667    0.33333    0.45833   1.00
Zn1      0.66667    0.33333    0.42922   1.00
Zn1      -0.37621   0.38485    0.46725   1.00
Zn1      0.61515    0.23894    0.46725   1.00
Zn1      0.76106    0.37621    0.46725   1.00
O2       0.64057    0.39473    0.41920   1.00
O2       0.60527    0.24583    0.41920   1.00
O2       0.75417    0.35943    0.41920   1.00
O2       0.59506    0.42028    0.44514   1.00
O2       0.54645    0.32871    0.48443   1.00
O2       -0.31407   0.45920    0.48404   1.00
O2       0.57972    0.17477    0.44514   1.00
O2       0.54080    0.22673    0.48404   1.00
O2       0.67129    0.21774    0.48443   1.00
O2       0.82523    0.40494    0.44514   1.00
O2       -0.21774   0.45355    0.48443   1.00
O2       0.77327    0.31407    0.48404   1.00
C1       0.60647    0.41943    0.42691   1.00
C1       0.58057    0.18703    0.42691   1.00
C1       0.81297    0.39353    0.42691   1.00
C1       0.52270    0.26670    0.49006   1.00
C1       -0.25600   0.47730    0.49006   1.00
C1       0.73330    0.25600    0.49006   1.00
O1       0.33333    0.66667    0.29167   1.00
Zn1      0.33333    0.66667    0.26256   1.00
Zn1      0.28182    0.70954    0.30058   1.00
Zn1      0.42773    0.71818    0.30058   1.00
Zn1      0.29046    0.57227    0.30058   1.00
O2       0.27193    0.69277    0.25254   1.00
O2       0.42083    0.72807    0.25254   1.00
O2       0.30723    0.57917    0.25254   1.00
O2       0.24638    0.73828    0.27848   1.00
O2       0.33796    0.78688    0.31776   1.00
O2       0.20747    0.64740    0.31737   1.00
O2       0.49189    0.75362    0.27848   1.00
O2       0.43994    0.79253    0.31737   1.00
O2       0.44893    0.66204    0.31776   1.00
O2       0.26172    0.50811    0.27848   1.00
O2       0.21312    0.55107    0.31776   1.00
O2       0.35260    0.56006    0.31737   1.00
C1       0.24723    0.72687    0.26025   1.00
C1       0.47963    0.75277    0.26025   1.00
C1       0.27313    0.52037    0.26025   1.00
C1       0.39997    0.81063    0.32339   1.00
C1       0.18937    0.58933    0.32339   1.00
C1       0.41067    0.60003    0.32339   1.00
O1       0.33333    0.66667    0.54167   1.00
Zn1      0.33333    0.66667    0.57078   1.00
Zn1      0.37621    0.61515    0.53275   1.00
Zn1      0.38485    0.76106    0.53275   1.00
Zn1      0.23894    -0.37621   0.53275   1.00
O2       0.35943    0.60527    0.58080   1.00
O2       0.39473    0.75417    0.58080   1.00
O2       0.24583    0.64057    0.58080   1.00
O2       0.40494    0.57972    0.55486   1.00
O2       0.45355    0.67129    0.51557   1.00
O2       0.31407    0.54080    0.51596   1.00
O2       0.42028    0.82523    0.55486   1.00
O2       0.45920    0.77327    0.51596   1.00
O2       0.32871    -0.21774   0.51557   1.00
O2       0.17477    0.59506    0.55486   1.00
O2       0.21774    0.54645    0.51557   1.00
O2       0.22673    -0.31407   0.51596   1.00
C1       0.39353    0.58057    0.57309   1.00
C1       0.41943    0.81297    0.57309   1.00
C1       0.18703    0.60647    0.57309   1.00
C1       0.47730    0.73330    0.50994   1.00
C1       0.25600    0.52270    0.50994   1.00
C1       0.26670    -0.25600   0.50994   1.00
O1       0.33333    0.66667    0.04167   1.00
Zn1      0.33333    0.66667    0.07078   1.00
Zn1      0.38485    -0.37621   0.03275   1.00
Zn1      0.23894    0.61515    0.03275   1.00
Zn1      0.37621    0.76106    0.03275   1.00
O2       0.39473    0.64057    0.08080   1.00
O2       0.24583    0.60527    0.08080   1.00
O2       0.35943    0.75417    0.08080   1.00
O2       0.42028    0.59506    0.05486   1.00
O2       0.32871    0.54645    0.01557   1.00
O2       0.45920    -0.31407   0.01596   1.00
O2       0.17477    0.57972    0.05486   1.00
O2       0.22673    0.54080    0.01596   1.00
O2       0.21774    0.67129    0.01557   1.00
O2       0.40494    0.82523    0.05486   1.00
O2       0.45355    -0.21774   0.01557   1.00
O2       0.31407    0.77327    0.01596   1.00
C1       0.41943    0.60647    0.07309   1.00
C1       0.18703    0.58057    0.07309   1.00
C1       0.39353    0.81297    0.07309   1.00
C1       0.26670    0.52270    0.00994   1.00
C1       0.47730    -0.25600   0.00994   1.00
C1       0.25600    0.73330    0.00994   1.00
O1       0.33333    0.66667    0.79167   1.00
Zn1      0.33333    0.66667    0.76256   1.00
Zn1      0.29046    0.71818    0.80058   1.00
Zn1      0.28182    0.57227    0.80058   1.00
Zn1      0.42773    0.70954    0.80058   1.00
O2       0.30723    0.72807    0.75254   1.00
O2       0.27193    0.57917    0.75254   1.00
O2       0.42083    0.69277    0.75254   1.00
O2       0.26172    0.75362    0.77848   1.00
O2       0.21312    0.66204    0.81776   1.00
O2       0.35260    0.79253    0.81737   1.00
O2       0.24638    0.50811    0.77848   1.00
O2       0.20747    0.56006    0.81737   1.00
O2       0.33796    0.55107    0.81776   1.00
O2       0.49189    0.73828    0.77848   1.00
O2       0.44893    0.78688    0.81776   1.00
O2       0.43994    0.64740    0.81737   1.00
C1       0.27313    0.75277    0.76025   1.00
C1       0.24723    0.52037    0.76025   1.00
C1       0.47963    0.72687    0.76025   1.00
C1       0.18937    0.60003    0.82339   1.00
C1       0.41067    0.81063    0.82339   1.00
C1       0.39997    0.58933    0.82339   1.00
C4       -0.13818   0.68983    0.55008   1.00
C4       -0.16804   0.63475    0.53589   1.00
C3       -0.08627   0.69958    0.56402   1.00
C3       -0.15348   0.58061    0.53547   1.00
C3       -0.16188   0.73755    0.55071   1.00
C3       -0.21504   0.63320    0.52117   1.00
C2       -0.08280   0.80056    0.57898   1.00
C2       -0.23172   0.52438    0.50700   1.00
C3       -0.05959   0.75317    0.57816   1.00
C3       -0.18393   0.52726    0.52131   1.00
C3       -0.13340   0.79201    0.56483   1.00
C3       -0.24737   0.57748    0.50760   1.00
H1       -0.06616   0.66818    0.56427   1.00
H1       -0.12065   0.57810    0.54552   1.00
C5       -0.21366   0.73074    0.53717   1.00
C5       -0.23006   0.68685    0.52018   1.00
H1       -0.02247   0.75738    0.58797   1.00
H1       -0.17102   0.48980    0.52161   1.00
H1       -0.14956   0.82694    0.56472   1.00
H1       -0.28412   0.57490    0.49803   1.00
O3       -0.24424   0.76960    0.54003   1.00
O3       -0.26430   0.69345    0.50376   1.00
Si1      -0.31455   0.73906    0.55321   1.00
Si1      -0.22086   0.73359    0.48362   1.00
C6       -0.31881   0.81475    0.55421   1.00
C6       -0.38077   0.67659    0.53819   1.00
C6       -0.30750   0.71183    0.57773   1.00
C6       -0.13211   0.76423    0.48347   1.00
C6       -0.26002   0.67290    0.46428   1.00
C6       -0.23690   0.80091    0.47897   1.00
C6       -0.25108   0.88102    0.56020   1.00
H2       -0.32772   0.82184    0.53835   1.00
C6       -0.37652   0.81799    0.56650   1.00
H2       -0.36093   0.69290    0.52289   1.00
C6       -0.39696   0.60104    0.53997   1.00
C6       -0.45190   0.67237    0.53847   1.00
H2       -0.25969   0.75487    0.58315   1.00
C6       -0.36316   0.70170    0.59366   1.00
C6       -0.30052   0.64654    0.58021   1.00
C6       -0.08788   0.81433    0.50070   1.00
C6       -0.10551   0.71281    0.48065   1.00
H2       -0.11588   0.79449    0.46958   1.00
H2       -0.24529   0.63482    0.46759   1.00
C6       -0.33988   0.63296    0.46419   1.00
C6       -0.23698   0.69695    0.44199   1.00
H2       -0.28603   0.77650    0.47119   1.00
C6       -0.24757   0.83535    0.49801   1.00
C6       -0.18645   0.86042    0.46481   1.00
H2       -0.20903   0.88956    0.55021   1.00
H2       -0.23620   0.87813    0.57578   1.00
H2       -0.25658   0.92617    0.55895   1.00
H2       -0.39035   0.85246    0.55900   1.00
H2       -0.42267   0.76866    0.56787   1.00
H2       -0.36026   0.83779    0.58183   1.00
H2       -0.42787   0.57077    0.52714   1.00
H2       -0.35094   0.59722    0.53982   1.00
H2       -0.42549   0.57713    0.55380   1.00
H2       -0.44755   0.72109    0.53439   1.00
H2       -0.48670   0.63528    0.52740   1.00
H2       -0.47588   0.65682    0.55337   1.00
H2       -0.41439   0.66758    0.58785   1.00
H2       -0.35746   0.68029    0.60792   1.00
H2       -0.35910   0.75003    0.59779   1.00
H2       -0.35007   0.59990    0.58092   1.00
H2       -0.27210   0.63990    0.56809   1.00
H2       -0.27376   0.64959    0.59434   1.00
H2       -0.08867   0.78719    0.51443   1.00
H2       -0.03462   0.84437    0.49593   1.00
H2       -0.10467   0.85032    0.50460   1.00
H2       -0.05043   0.74014    0.47801   1.00
H2       -0.11476   0.68092    0.49395   1.00
H2       -0.12847   0.67965    0.46755   1.00
H2       -0.35921   0.58905    0.45399   1.00
H2       -0.36041   0.61309    0.47924   1.00
H2       -0.36067   0.66481    0.45918   1.00
H2       -0.18158   0.72375    0.44047   1.00
H2       -0.25718   0.65307    0.43175   1.00
H2       -0.25556   0.73042    0.43668   1.00
H2       -0.20230   0.85967    0.50759   1.00
H2       -0.26118   0.87370    0.49380   1.00
H2       -0.28925   0.79733    0.50709   1.00
H2       -0.20736   0.89307    0.46065   1.00
H2       -0.13744   0.89248    0.47226   1.00
H2       -0.17714   0.84137    0.45069   1.00
C4       0.31225    0.17238    0.55078   1.00
C4       0.36689    0.19701    0.53645   1.00
C3       0.31901    0.19994    0.57055   1.00
C3       0.43509    0.24734    0.54107   1.00
C3       0.24725    0.11639    0.54532   1.00
C3       0.35321    0.17037    0.51630   1.00
C2       0.20022    0.11750    0.57924   1.00
C2       0.47484    0.24304    0.50674   1.00
C3       0.26469    0.17305    0.58443   1.00
C3       0.48748    0.27021    0.52658   1.00
C3       0.19273    0.09082    0.55941   1.00
C3       0.40728    0.19198    0.50218   1.00
H1       0.36354    0.24051    0.57541   1.00
H1       0.44881    0.26857    0.55513   1.00
C5       0.23704    0.08649    0.52578   1.00
C5       0.28588    0.12191    0.51037   1.00
H1       0.27273    0.19476    0.59857   1.00
H1       0.53572    0.30714    0.53073   1.00
H1       0.14588    0.05188    0.55508   1.00
H1       0.39746    0.16927    0.48824   1.00
O3       0.17830    0.02586    0.52175   1.00
O3       0.26917    0.10571    0.49018   1.00
Si1      0.17735    -0.04624   0.52462   1.00
Si1      0.24984    0.15379    0.47654   1.00
C6       0.08896    -0.10052   0.52095   1.00
C6       0.22469    -0.05334   0.50449   1.00
C6       0.20267    -0.05656   0.54908   1.00
C6       0.25412    0.22629    0.48809   1.00
C6       0.30862    0.17976    0.45649   1.00
C6       0.16780    0.10073    0.46647   1.00
C6       0.04121    -0.08137   0.53301   1.00
H2       0.08265    -0.09160   0.50502   1.00
C6       0.05543    -0.17992   0.52316   1.00
H2       0.22035    -0.02135   0.49289   1.00
C6       0.30292    -0.02429   0.50759   1.00
C6       0.19805    -0.12468   0.49431   1.00
H2       0.17279    -0.04237   0.55886   1.00
C6       0.18396    -0.13049   0.55556   1.00
C6       0.27918    -0.01110   0.55575   1.00
C6       0.21039    0.21537    0.50756   1.00
C6       0.32539    0.29078    0.49222   1.00
H2       0.23181    0.24360    0.47649   1.00
H2       0.35728    0.21465    0.46364   1.00
C6       0.31893    0.12276    0.44652   1.00
C6       0.29939    0.22010    0.43869   1.00
H2       0.17673    0.07663    0.45340   1.00
C6       0.11705    0.04041    0.48015   1.00
C6       0.12736    0.13513    0.45823   1.00
H2       0.05359    -0.02903   0.52991   1.00
H2       0.04546    -0.08640   0.54936   1.00
H2       -0.01218   -0.11420   0.52873   1.00
H2       0.01279    -0.20558   0.51258   1.00
H2       0.09075    -0.19810   0.52005   1.00
H2       0.03455    -0.19769   0.53831   1.00
H2       0.32837    -0.01855   0.49302   1.00
H2       0.32761    0.02604    0.51454   1.00
H2       0.31262    -0.05828   0.51696   1.00
H2       0.14597    -0.14552   0.48877   1.00
H2       0.22892    -0.12114   0.48110   1.00
H2       0.19983    -0.16087   0.50489   1.00
H2       0.20231    -0.15339   0.54446   1.00
H2       0.20573    -0.13127   0.57031   1.00
H2       0.12924    -0.16314   0.55736   1.00
H2       0.31019    -0.03356   0.55139   1.00
H2       0.30362    0.03992    0.54947   1.00
H2       0.28244    -0.00554   0.57226   1.00
H2       0.23601    0.21229    0.52117   1.00
H2       0.20137    0.25811    0.50970   1.00
H2       0.16062    0.16937    0.50668   1.00
H2       0.31950    0.33409    0.49668   1.00
H2       0.35285    0.28260    0.50442   1.00
H2       0.35773    0.30696    0.47876   1.00
H2       0.36406    0.14543    0.43677   1.00
H2       0.32711    0.09270    0.45798   1.00
H2       0.27531    0.08802    0.43726   1.00
H2       0.29384    0.26247    0.44423   1.00
H2       0.34412    0.24191    0.42877   1.00
H2       0.25500    0.18702    0.42941   1.00
H2       0.10588    0.05802    0.49426   1.00
H2       0.06891    0.00779    0.47235   1.00
H2       0.13872    0.00861    0.48403   1.00
H2       0.08247    0.09853    0.44967   1.00
H2       0.10979    0.15471    0.47058   1.00
H2       0.15822    0.17716    0.44795   1.00
C4       0.83211    0.14581    0.55133   1.00
C4       0.80744    0.17484    0.53668   1.00
C3       0.87237    0.18211    0.56835   1.00
C3       0.82568    0.24465    0.53654   1.00
C3       0.81684    0.07697    0.54882   1.00
C3       0.76181    0.13219    0.52125   1.00
C2       0.88287    0.08453    0.57973   1.00
C2       0.75659    0.22999    0.50625   1.00
C3       0.89740    0.15250    0.58210   1.00
C3       0.80047    0.27137    0.52187   1.00
C3       0.84150    0.04762    0.56307   1.00
C3       0.73931    0.16073    0.50609   1.00
H1       0.88450    0.23106    0.57129   1.00
H1       0.85814    0.27824    0.54702   1.00
C5       0.77680    0.03782    0.53214   1.00
C5       0.73932    0.06147    0.52089   1.00
H1       0.92669    0.18140    0.59404   1.00
H1       0.81494    0.32211    0.52262   1.00
H1       0.82856    -0.00239   0.56139   1.00
H1       0.71019    0.13047    0.49441   1.00
O3       0.77172    -0.02412   0.52787   1.00
O3       0.68541    0.01723    0.50875   1.00
Si1      0.82398    -0.02818   0.51161   1.00
Si1      0.60782    -0.01357   0.51725   1.00
C6       0.79982    -0.11430   0.51590   1.00
C6       0.79936    -0.01673   0.48722   1.00
C6       0.91071    0.02673    0.51761   1.00
C6       0.59637    0.01362    0.54133   1.00
C6       0.56902    0.01111    0.49863   1.00
C6       0.56894    -0.10312   0.51665   1.00
C6       0.79476    -0.13621   0.53869   1.00
H2       0.74750    -0.14114   0.51023   1.00
C6       0.83712    -0.14785   0.50483   1.00
H2       0.74549    -0.03349   0.48945   1.00
C6       0.83218    0.05737    0.47854   1.00
C6       0.80168    -0.06096   0.46933   1.00
H2       0.91224    0.01638    0.53373   1.00
C6       0.96426    0.01237    0.50705   1.00
C6       0.94207    0.10602    0.51556   1.00
C6       0.63239    0.00250    0.55998   1.00
C6       0.60611    0.08679    0.54378   1.00
H2       0.54191    -0.01996   0.54396   1.00
H2       0.59316    0.06622    0.50055   1.00
C6       0.58305    0.00017    0.47608   1.00
C6       0.49045    -0.01768   0.50045   1.00
H2       0.55327    -0.11627   0.50087   1.00
C6       0.61621    -0.13334   0.52105   1.00
C6       0.50312    -0.14574   0.52969   1.00
H2       0.76041    -0.12470   0.54723   1.00
H2       0.84467    -0.11014   0.54605   1.00
H2       0.77456    -0.19113   0.54006   1.00
H2       0.80117    -0.20171   0.50186   1.00
H2       0.85919    -0.12388   0.49038   1.00
H2       0.87808    -0.14621   0.51401   1.00
H2       0.80281    0.05923    0.46564   1.00
H2       0.83312    0.09329    0.48968   1.00
H2       0.88414    0.07537    0.47327   1.00
H2       0.77130    -0.11533   0.47268   1.00
H2       0.78030    -0.05279   0.45544   1.00
H2       0.85400    -0.04825   0.46602   1.00
H2       0.95832    0.01016    0.49058   1.00
H2       1.01671    0.05159    0.51056   1.00
H2       0.95980    -0.03512   0.51234   1.00
H2       0.96106    0.12411    0.50028   1.00
H2       0.90646    0.12323    0.51916   1.00
H2       0.98529    0.13253    0.52591   1.00
H2       0.68524    0.04317    0.56136   1.00
H2       0.60665    0.00211    0.57405   1.00
H2       0.63163    -0.04589   0.55920   1.00
H2       0.58803    0.09239    0.55865   1.00
H2       0.65932    0.12653    0.54263   1.00
H2       0.57698    0.09715    0.53259   1.00
H2       0.56690    0.02731    0.46578   1.00
H2       0.63742    0.02020    0.47337   1.00
H2       0.55583    -0.05359   0.47182   1.00
H2       0.47607    -0.01037   0.51564   1.00
H2       0.47414    0.00879    0.48993   1.00
H2       0.46171    -0.07195   0.49677   1.00
H2       0.63754    -0.12131   0.53632   1.00
H2       0.58917    -0.18870   0.51921   1.00
H2       0.65837    -0.11261   0.51039   1.00
H2       0.47826    -0.19979   0.52566   1.00
H2       0.51495    -0.14144   0.54588   1.00
H2       0.46572    -0.12958   0.52722   1.00
C4       0.68691    -0.14701   0.94885   1.00
C4       0.63331    -0.17561   0.96354   1.00
C3       0.70371    -0.18676   0.93600   1.00
C3       0.59535    -0.24631   0.96813   1.00
C3       0.72697    -0.07462   0.94699   1.00
C3       0.61608    -0.13164   0.97433   1.00
C2       0.79825    -0.08523   0.92023   1.00
C2       0.52669    -0.22929   0.99379   1.00
C3       0.75807    -0.15677   0.92216   1.00
C3       0.54308    -0.27253   0.98269   1.00
C3       0.78078    -0.04538   0.93267   1.00
C3       0.56522    -0.15871   0.98956   1.00
H1       0.67680    -0.23868   0.93626   1.00
H1       0.60483    -0.28078   0.96111   1.00
C5       0.71284    -0.03193   0.95938   1.00
C5       0.65001    -0.06086   0.97000   1.00
H1       0.76815    -0.18810   0.91336   1.00
H1       0.51695    -0.32416   0.98525   1.00
H1       0.80786    0.00656    0.93111   1.00
H1       0.55649    -0.12604   0.99804   1.00
O3       0.75820    0.03719    0.95997   1.00
O3       0.62542    -0.01993   0.97720   1.00
Si1      0.81714    0.06858    0.97746   1.00
Si1      0.56633    -0.01528   0.96433   1.00
C6       0.86272    0.15238    0.96777   1.00
C6       0.77685    0.06607    1.00058   1.00
C6       0.86834    0.03006    0.97802   1.00
C6       0.53445    -0.06539   0.94216   1.00
C6       0.50013    -0.04051   0.98205   1.00
C6       0.59777    0.07137    0.95859   1.00
C6       0.87862    0.15866    0.94447   1.00
H2       0.82631    0.17022    0.96974   1.00
C6       0.93041    0.20786    0.97809   1.00
H2       0.73145    0.06685    0.99542   1.00
C6       0.75025    0.00106    1.01419   1.00
C6       0.81370    0.12770    1.01552   1.00
H2       0.88097    0.03039    0.96201   1.00
C6       0.93811    0.06904    0.98952   1.00
C6       0.83675    -0.04574   0.98547   1.00
C6       0.58628    -0.05580   0.92503   1.00
C6       0.48464    -0.14409   0.94410   1.00
H2       0.50246    -0.04671   0.93570   1.00
H2       0.48124    -0.09487   0.98410   1.00
C6       0.52156    -0.00845   1.00373   1.00
C6       0.43733    -0.03362   0.97568   1.00
H2       0.58910    0.09226    0.97246   1.00
C6       0.67593    0.11522    0.95459   1.00
C6       0.56222    0.08918    0.94118   1.00
H2       0.83221    0.12990    0.93551   1.00
H2       0.91326    0.13976    0.94073   1.00
H2       0.90219    0.21166    0.93942   1.00
H2       0.93501    0.25811    0.97666   1.00
H2       0.93282    0.19847    0.99415   1.00
H2       0.97572    0.21168    0.97095   1.00
H2       0.71430    -0.00053   1.02556   1.00
H2       0.72296    -0.04575   1.00542   1.00
H2       0.79205    0.00051    1.02226   1.00
H2       0.82581    0.17566    1.00820   1.00
H2       0.78122    0.12229    1.02850   1.00
H2       0.86060    0.13163    1.02144   1.00
H2       0.93102    0.08136    1.00502   1.00
H2       0.96405    0.03927    0.99030   1.00
H2       0.97348    0.11580    0.98171   1.00
H2       0.84053    -0.04905   1.00189   1.00
H2       0.78348    -0.07760   0.98153   1.00
H2       0.86402    -0.06922   0.97862   1.00
H2       0.61114    -0.08553   0.92795   1.00
H2       0.56010    -0.07295   0.91045   1.00
H2       0.62563    -0.00267   0.92316   1.00
H2       0.46208    -0.16608   0.92938   1.00
H2       0.51031    -0.17091   0.94942   1.00
H2       0.44214    -0.15609   0.95429   1.00
H2       0.47959    -0.03556   1.01446   1.00
H2       0.56471    -0.01232   1.00954   1.00
H2       0.53557    0.04518    1.00388   1.00
H2       0.41749    -0.05660   0.96088   1.00
H2       0.39572    -0.05988   0.98658   1.00
H2       0.45018    0.01971    0.97519   1.00
H2       0.69171    0.09758    0.94138   1.00
H2       0.69182    0.16893    0.95234   1.00
H2       0.70383    0.11261    0.96762   1.00
H2       0.57913    0.14367    0.94119   1.00
H2       0.57406    0.07653    0.92629   1.00
H2       0.50696    0.06223    0.94296   1.00
C4       0.17238    0.31226    0.94922   1.00
C4       0.19700    0.36690    0.96355   1.00
C3       0.19975    0.31911    0.92942   1.00
C3       0.24713    0.43516    0.95891   1.00
C3       0.11658    0.24718    0.95471   1.00
C3       0.17058    0.35316    0.98372   1.00
C2       0.11751    0.20022    0.92076   1.00
C2       0.24303    0.47484    0.99326   1.00
C3       0.17286    0.26478    0.91553   1.00
C3       0.27000    0.48755    0.97340   1.00
C3       0.09102    0.19266    0.94062   1.00
C3       0.19218    0.40721    0.99784   1.00
H1       0.24018    0.36370    0.92453   1.00
H1       0.26819    0.44892    0.94483   1.00
C5       0.08688    0.23689    0.97428   1.00
C5       0.12235    0.28578    0.98967   1.00
H1       0.19443    0.27288    0.90138   1.00
H1       0.30677    0.53583    0.96923   1.00
H1       0.05223    0.14576    0.94497   1.00
H1       0.16961    0.39733    1.01181   1.00
O3       0.02639    0.17803    0.97835   1.00
O3       0.10639    0.26905    1.00988   1.00
Si1      -0.04586   0.17682    0.97557   1.00
Si1      0.15478    0.24993    1.02345   1.00
C6       -0.09988   0.08839    0.97925   1.00
C6       -0.05294   0.22405    0.99573   1.00
C6       -0.05656   0.20204    0.95113   1.00
C6       0.22727    0.25447    1.01180   1.00
C6       0.18079    0.30871    1.04350   1.00
C6       0.10204    0.16786    1.03353   1.00
C6       -0.08065   0.04079    0.96714   1.00
H2       -0.09075   0.08213    0.99516   1.00
C6       -0.17933   0.05462    0.97712   1.00
H2       -0.02075   0.21984    1.00729   1.00
C6       -0.02416   0.30225    0.99264   1.00
C6       -0.12420   0.19720    1.00599   1.00
H2       -0.04234   0.17227    0.94132   1.00
C6       -0.13063   0.18308    0.94474   1.00
C6       -0.01137   0.27857    0.94445   1.00
C6       0.21628    0.21077    0.99232   1.00
C6       0.29157    0.32585    1.00764   1.00
H2       0.24482    0.23227    1.02337   1.00
H2       0.21549    0.35740    1.03633   1.00
C6       0.12376    0.31879    1.05354   1.00
C6       0.22143    0.29966    1.06124   1.00
H2       0.07799    0.17669    1.04664   1.00
C6       0.04165    0.11697    1.01989   1.00
C6       0.13673    0.12762    1.04170   1.00
H2       -0.02822   0.05335    0.97018   1.00
H2       -0.08588   0.04501    0.95080   1.00
H2       -0.11330   -0.01261   0.97143   1.00
H2       -0.20476   0.01197    0.98771   1.00
H2       -0.19764   0.08982    0.98028   1.00
H2       -0.19721   0.03371    0.96198   1.00
H2       -0.01835   0.32767    1.00722   1.00
H2       0.02610    0.32707    0.98565   1.00
H2       -0.05835   0.31179    0.98332   1.00
H2       -0.14483   0.14514    1.01152   1.00
H2       -0.12063   0.22803    1.01921   1.00
H2       -0.16058   0.19884    0.99545   1.00
H2       -0.15352   0.20132    0.95587   1.00
H2       -0.13165   0.20480    0.93000   1.00
H2       -0.16315   0.12835    0.94294   1.00
H2       -0.03394   0.30944    0.94886   1.00
H2       0.03972    0.30316    0.95068   1.00
H2       -0.00599   0.28184    0.92794   1.00
H2       0.21296    0.23633    0.97874   1.00
H2       0.25911    0.20192    0.99013   1.00
H2       0.17039    0.16092    0.99323   1.00
H2       0.33494    0.32012    1.00312   1.00
H2       0.28314    0.35321    0.99546   1.00
H2       0.30781    0.35819    1.02109   1.00
H2       0.14641    0.36393    1.06329   1.00
H2       0.09348    0.32684    1.04212   1.00
H2       0.08921    0.27513    1.06282   1.00
H2       0.26384    0.29427    1.05564   1.00
H2       0.24322    0.34438    1.07116   1.00
H2       0.18855    0.25523    1.07053   1.00
H2       0.05918    0.10588    1.00576   1.00
H2       0.00923    0.06880    1.02771   1.00
H2       0.00966    0.13847    1.01606   1.00
H2       0.10032    0.08268    1.05028   1.00
H2       0.15628    0.11015    1.02932   1.00
H2       0.17883    0.15858    1.05195   1.00
C4       0.14581    0.83211    0.94867   1.00
C4       0.17484    0.80744    0.96332   1.00
C3       0.18212    0.87240    0.93166   1.00
C3       0.24466    0.82570    0.96346   1.00
C3       0.07696    0.81682    0.95117   1.00
C3       0.13218    0.76179    0.97875   1.00
C2       0.08453    0.88287    0.92027   1.00
C2       0.22999    0.75659    0.99375   1.00
C3       0.15251    0.89743    0.91791   1.00
C3       0.27137    0.80050    0.97814   1.00
C3       0.04761    0.84148    0.93692   1.00
C3       0.16073    0.73929    0.99390   1.00
H1       0.23108    0.88455    0.92872   1.00
H1       0.27825    0.85818    0.95299   1.00
C5       0.03780    0.77675    0.96785   1.00
C5       0.06146    0.73927    0.97910   1.00
H1       0.18141    0.92674    0.90597   1.00
H1       0.32213    0.81498    0.97739   1.00
H1       -0.00241   0.82852    0.93860   1.00
H1       0.13046    0.71015    1.00558   1.00
O3       -0.02416   0.77165    0.97211   1.00
O3       0.01722    0.68535    0.99123   1.00
Si1      -0.02825   0.82387    0.98838   1.00
Si1      -0.01355   0.60777    0.98272   1.00
C6       -0.11437   0.79969    0.98408   1.00
C6       -0.01681   0.79924    1.01277   1.00
C6       0.02665    0.91061    0.98239   1.00
C6       0.01368    0.59636    0.95864   1.00
C6       0.01113    0.56896    1.00134   1.00
C6       -0.10310   0.56886    0.98331   1.00
C6       -0.13626   0.79465    0.96129   1.00
H2       -0.14121   0.74736    0.98974   1.00
C6       -0.14796   0.83696    0.99515   1.00
H2       -0.03355   0.74538    1.01053   1.00
C6       0.05728    0.83207    1.02145   1.00
C6       -0.06108   0.80152    1.03065   1.00
H2       0.01631    0.91216    0.96626   1.00
C6       0.01225    0.96414    0.99295   1.00
C6       0.10593    0.94200    0.98445   1.00
C6       0.00256    0.63239    0.94000   1.00
C6       0.08686    0.60612    0.95621   1.00
H2       -0.01989   0.54190    0.95601   1.00
H2       0.06625    0.59312    0.99943   1.00
C6       0.00016    0.58296    1.02390   1.00
C6       -0.01763   0.49040    0.99952   1.00
H2       -0.11627   0.55317    0.99909   1.00
C6       -0.13335   0.61611    0.97892   1.00
C6       -0.14569   0.50305    0.97027   1.00
H2       -0.12473   0.76031    0.95275   1.00
H2       -0.11020   0.84457    0.95393   1.00
H2       -0.19119   0.77443    0.95992   1.00
H2       -0.20182   0.80099    0.99811   1.00
H2       -0.12401   0.85902    1.00960   1.00
H2       -0.14632   0.87792    0.98597   1.00
H2       0.05914    0.80269    1.03436   1.00
H2       0.09321    0.83303    1.01032   1.00
H2       0.07525    0.88402    1.02673   1.00
H2       -0.11543   0.77113    1.02730   1.00
H2       -0.05291   0.78013    1.04455   1.00
H2       -0.04838   0.85383    1.03397   1.00
H2       0.01002    0.95818    1.00942   1.00
H2       0.05146    1.01660    0.98945   1.00
H2       -0.03524   0.95967    0.98765   1.00
H2       0.12400    0.96097    0.99973   1.00
H2       0.12316    0.90640    0.98084   1.00
H2       0.13245    0.98523    0.97410   1.00
H2       0.04322    0.68524    0.93863   1.00
H2       0.00220    0.60667    0.92592   1.00
H2       -0.04584   0.63161    0.94078   1.00
H2       0.09248    0.58807    0.94133   1.00
H2       0.12659    0.65934    0.95736   1.00
H2       0.09722    0.57699    0.96739   1.00
H2       0.02730    0.56681    1.03419   1.00
H2       0.02017    0.63732    1.02661   1.00
H2       -0.05361   0.55572    1.02815   1.00
H2       -0.01030   0.47604    0.98432   1.00
H2       0.00884    0.47409    1.01004   1.00
H2       -0.07191   0.46164    1.00319   1.00
H2       -0.12130   0.63746    0.96366   1.00
H2       -0.18870   0.58906    0.98075   1.00
H2       -0.11263   0.65826    0.98959   1.00
H2       -0.19975   0.47817    0.97429   1.00
H2       -0.14138   0.51490    0.95408   1.00
H2       -0.12951   0.46566    0.97274   1.00
C4       0.14396    0.30735    0.45077   1.00
C4       0.17344    0.36262    0.46491   1.00
C3       0.16782    0.26067    0.44791   1.00
C3       0.23342    0.38043    0.47623   1.00
C3       0.08812    0.29839    0.43850   1.00
C3       0.14158    0.40260    0.46807   1.00
C2       0.08375    0.19898    0.42116   1.00
C2       0.23077    0.47608    0.49286   1.00
C3       0.13884    0.20821    0.43344   1.00
C3       0.26097    0.43519    0.48997   1.00
C3       0.05876    0.24436    0.42425   1.00
C3       0.17178    0.45935    0.48134   1.00
H1       0.20680    0.26328    0.45631   1.00
H1       0.25910    0.35442    0.47474   1.00
C5       0.06178    0.34327    0.44060   1.00
C5       0.08014    0.38622    0.45788   1.00
H1       0.15855    0.17630    0.43195   1.00
H1       0.30410    0.44534    0.49787   1.00
H1       0.01752    0.23741    0.41596   1.00
H1       0.15081    0.49007    0.48246   1.00
O3       0.01594    0.34166    0.42656   1.00
O3       0.04150    0.41514    0.46364   1.00
Si1      0.04329    0.39315    0.40710   1.00
Si1      -0.01305   0.38041    0.48215   1.00
C6       -0.03510   0.35774    0.39400   1.00
C6       0.06828    0.47571    0.41608   1.00
C6       0.10556    0.38659    0.39272   1.00
C6       -0.01794   0.30890    0.49457   1.00
C6       0.01272    0.44763    0.49953   1.00
C6       -0.09371   0.36023    0.47264   1.00
C6       -0.07532   0.27806    0.39204   1.00
H2       -0.06581   0.36995    0.40407   1.00
C6       -0.04006   0.38503    0.37254   1.00
H2       0.03751    0.46472    0.42978   1.00
C6       0.14392    0.52228    0.42300   1.00
C6       0.05134    0.52285    0.40291   1.00
H2       0.08260    0.33144    0.39093   1.00
C6       0.11981    0.41690    0.37073   1.00
C6       0.17855    0.41290    0.40194   1.00
C6       -0.03394   0.24504    0.48147   1.00
C6       0.03976    0.31923    0.50973   1.00
H2       -0.06241   0.29241    0.50433   1.00
H2       0.06097    0.45502    0.50543   1.00
C6       0.02963    0.51824    0.49041   1.00
C6       -0.03418   0.43521    0.51833   1.00
H2       -0.09354   0.40849    0.47327   1.00
C6       -0.10787   0.33788    0.44997   1.00
C6       -0.15841   0.30766    0.48472   1.00
H2       -0.08435   0.25342    0.40686   1.00
H2       -0.04752   0.26014    0.38271   1.00
H2       -0.12538   0.25999    0.38515   1.00
H2       -0.08973   0.38152    0.37075   1.00
H2       -0.00123   0.43794    0.37009   1.00
H2       -0.03566   0.35517    0.36023   1.00
H2       0.14915    0.56507    0.43208   1.00
H2       0.16170    0.49501    0.43249   1.00
H2       0.17799    0.54349    0.40998   1.00
H2       -0.00311   0.49855    0.39966   1.00
H2       0.06475    0.57037    0.41085   1.00
H2       0.07953    0.53635    0.38862   1.00
H2       0.13200    0.47005    0.37082   1.00
H2       0.16228    0.41483    0.36352   1.00
H2       0.07637    0.38776    0.36083   1.00
H2       0.21268    0.46706    0.39897   1.00
H2       0.17830    0.40582    0.41819   1.00
H2       0.20192    0.38543    0.39515   1.00
H2       0.01180    0.25027    0.47432   1.00
H2       -0.05503   0.19932    0.49095   1.00
H2       -0.07125   0.23542    0.46965   1.00
H2       0.02480    0.27235    0.51824   1.00
H2       0.08728    0.33247    0.50203   1.00
H2       0.05007    0.35856    0.52097   1.00
H2       0.05595    0.55875    0.50163   1.00
H2       0.06355    0.53159    0.47731   1.00
H2       -0.01622   0.51887    0.48567   1.00
H2       -0.04704   0.38768    0.52608   1.00
H2       -0.00822   0.47628    0.52941   1.00
H2       -0.08142   0.43381    0.51400   1.00
H2       -0.10679   0.29097    0.44717   1.00
H2       -0.15721   0.33021    0.44497   1.00
H2       -0.06937   0.37745    0.44043   1.00
H2       -0.20402   0.30742    0.47915   1.00
H2       -0.16699   0.25589    0.48319   1.00
H2       -0.15422   0.32012    0.50082   1.00
C4       0.68984    0.82801    0.44993   1.00
C4       0.63598    0.80353    0.46452   1.00
C3       0.74273    0.81166    0.45034   1.00
C3       0.63307    0.76546    0.48199   1.00
C3       0.69202    0.87220    0.43414   1.00
C3       0.58159    0.81738    0.46165   1.00
C2       0.79882    0.88232    0.42044   1.00
C2       0.52612    0.75714    0.49358   1.00
C3       0.79595    0.83835    0.43608   1.00
C3       0.57934    0.74235    0.49603   1.00
C3       0.74544    0.89756    0.41967   1.00
C3       0.52947    0.79613    0.47642   1.00
H1       0.74402    0.77970    0.46098   1.00
H1       0.67010    0.75378    0.48510   1.00
C5       0.64068    0.89053    0.43285   1.00
C5       0.57973    0.85283    0.44416   1.00
H1       0.83307    0.82513    0.43723   1.00
H1       0.57961    0.71454    0.50829   1.00
H1       0.74530    0.92767    0.40810   1.00
H1       0.49328    0.81020    0.47480   1.00
O3       0.64896    0.94168    0.41981   1.00
O3       0.52163    0.85498    0.43905   1.00
Si1      0.68278    1.01995    0.42806   1.00
Si1      0.46214    0.79209    0.42602   1.00
C6       0.69011    1.05901    0.40430   1.00
C6       0.62156    1.02444    0.44349   1.00
C6       0.76343    1.05019    0.43945   1.00
C6       0.47369    0.72256    0.41982   1.00
C6       0.38977    0.76357    0.44147   1.00
C6       0.44884    0.82723    0.40383   1.00
C6       0.72175    1.03683    0.38679   1.00
H2       0.63681    1.03888    0.40006   1.00
C6       0.72445    1.13856    0.40237   1.00
H2       0.57397    0.98270    0.43752   1.00
C6       0.62112    1.01001    0.46671   1.00
C6       0.61401    1.08936    0.44210   1.00
H2       0.78952    1.03529    0.42839   1.00
C6       0.80931    1.12923    0.44216   1.00
C6       0.76863    1.02008    0.46043   1.00
C6       0.53901    0.73754    0.40765   1.00
C6       0.46435    0.66971    0.43664   1.00
H2       0.43122    0.69308    0.40950   1.00
H2       0.40022    0.73978    0.45431   1.00
C6       0.37787    0.82026    0.45089   1.00
C6       0.31980    0.70834    0.43247   1.00
H2       0.41584    0.84681    0.40876   1.00
C6       0.51288    0.89004    0.39465   1.00
C6       0.41116    0.77815    0.38564   1.00
H2       0.69395    0.98159    0.38467   1.00
H2       0.77505    1.05267    0.38991   1.00
H2       0.71966    1.05923    0.37230   1.00
H2       0.69999    1.15161    0.39025   1.00
H2       0.72077    1.16269    0.41618   1.00
H2       0.77843    1.16254    0.39841   1.00
H2       0.57311    1.00004    0.47364   1.00
H2       0.62569    0.96519    0.46966   1.00
H2       0.66233    1.05357    0.47456   1.00
H2       0.60384    1.09850    0.42658   1.00
H2       0.57101    1.08354    0.45121   1.00
H2       0.65982    1.13450    0.44762   1.00
H2       0.78210    1.15047    0.45027   1.00
H2       0.85607    1.14289    0.45060   1.00
H2       0.82638    1.15480    0.42762   1.00
H2       0.76249    1.04722    0.47320   1.00
H2       0.73122    0.96662    0.46232   1.00
H2       0.81881    1.02456    0.46199   1.00
H2       0.58292    0.75368    0.41757   1.00
H2       0.53111    0.69162    0.39979   1.00
H2       0.55217    0.77666    0.39615   1.00
H2       0.46356    0.62514    0.42993   1.00
H2       0.50558    0.69080    0.44768   1.00
H2       0.41623    0.65056    0.44476   1.00
H2       0.33916    0.79880    0.46282   1.00
H2       0.42433    0.86060    0.45792   1.00
H2       0.36071    0.84359    0.43959   1.00
H2       0.32274    0.66548    0.42605   1.00
H2       0.28085    0.68762    0.44435   1.00
H2       0.30202    0.72974    0.42071   1.00
H2       0.55138    0.87757    0.38979   1.00
H2       0.49961    0.91113    0.38167   1.00
H2       0.53599    0.93026    0.40591   1.00
H2       0.39685    0.80363    0.37417   1.00
H2       0.44345    0.76134    0.37827   1.00
H2       0.36420    0.73310    0.39047   1.00
C4       0.16716    -0.13982   0.45095   1.00
C4       0.19195    -0.16983   0.46523   1.00
C3       0.11979    -0.11837   0.45594   1.00
C3       0.16724    -0.18705   0.48541   1.00
C3       0.18986    -0.13150   0.43040   1.00
C3       0.24450    -0.18349   0.45920   1.00
C2       0.11690    -0.08271   0.42096   1.00
C2       0.24364    -0.23181   0.49306   1.00
C3       0.09503    -0.09096   0.44135   1.00
C3       0.19279    -0.21660   0.49901   1.00
C3       0.16525    -0.10255   0.41599   1.00
C3       0.26748    -0.21595   0.47286   1.00
H1       0.10206    -0.12182   0.47034   1.00
H1       0.12966    -0.17903   0.49078   1.00
C5       0.23722    -0.15186   0.42440   1.00
C5       0.27345    -0.16529   0.43955   1.00
H1       0.06045    -0.07680   0.44582   1.00
H1       0.17342    -0.22742   0.51347   1.00
H1       0.18343    -0.09515   0.40144   1.00
H1       0.30196    -0.22935   0.46791   1.00
O3       0.25023    -0.15439   0.40410   1.00
O3       0.33281    -0.16544   0.43476   1.00
Si1      0.20725    -0.22580   0.39160   1.00
Si1      0.40593    -0.09825   0.44013   1.00
C6       0.23789    -0.19243   0.36720   1.00
C6       0.23719    -0.28056   0.39949   1.00
C6       0.11806    -0.26075   0.39321   1.00
C6       0.40556    -0.02940   0.45266   1.00
C6       0.44574    -0.13119   0.45560   1.00
C6       0.45236    -0.07013   0.41732   1.00
C6       0.23740    -0.12536   0.36163   1.00
H2       0.29169    -0.17759   0.36830   1.00
C6       0.21041    -0.23875   0.34783   1.00
H2       0.28867    -0.24440   0.40465   1.00
C6       0.20123    -0.32918   0.41787   1.00
C6       0.24589    -0.32596   0.38321   1.00
H2       0.11236    -0.21651   0.39000   1.00
C6       0.07309    -0.31622   0.37715   1.00
C6       0.08068    -0.29108   0.41392   1.00
C6       0.36685    0.00366    0.44237   1.00
C6       0.38758    -0.03546   0.47579   1.00
H2       0.45932    0.00990    0.45221   1.00
H2       0.41645    -0.14439   0.46966   1.00
C6       0.44139    -0.19894   0.44817   1.00
C6       0.52180    -0.08193   0.46159   1.00
H2       0.47376    -0.10357   0.41535   1.00
C6       0.41001    -0.07986   0.39770   1.00
C6       0.51425    0.00446    0.41647   1.00
H2       0.26540    -0.08519   0.37278   1.00
H2       0.18537    -0.13423   0.36082   1.00
H2       0.26188    -0.10530   0.34697   1.00
H2       0.25097    -0.22235   0.33653   1.00
H2       0.19197    -0.29226   0.35103   1.00
H2       0.16884    -0.23543   0.34055   1.00
H2       0.23284    -0.34912   0.42389   1.00
H2       0.19267    -0.30303   0.43039   1.00
H2       0.15242    -0.37274   0.41340   1.00
H2       0.27917    -0.29519   0.37087   1.00
H2       0.26965    -0.35346   0.38974   1.00
H2       0.19666    -0.36382   0.37694   1.00
H2       0.08442    -0.35778   0.37694   1.00
H2       0.01854    -0.33831   0.38017   1.00
H2       0.08073    -0.29450   0.36204   1.00
H2       0.06605    -0.34462   0.41569   1.00
H2       0.11089    -0.26432   0.42707   1.00
H2       0.03387    -0.28832   0.41472   1.00
H2       0.31248    -0.02459   0.44572   1.00
H2       0.38625    0.05562    0.44795   1.00
H2       0.37315    0.00697    0.42597   1.00
H2       0.39889    0.01403    0.48191   1.00
H2       0.33382    -0.07070   0.47865   1.00
H2       0.41743    -0.05173   0.48472   1.00
H2       0.45696    -0.22134   0.46027   1.00
H2       0.38924    -0.23700   0.44401   1.00
H2       0.47420    -0.19066   0.43510   1.00
H2       0.52935    -0.03369   0.46757   1.00
H2       0.53766    -0.10479   0.47348   1.00
H2       0.55588    -0.07120   0.44867   1.00
H2       0.38361    -0.05070   0.39813   1.00
H2       0.44201    -0.06491   0.38414   1.00
H2       0.37186    -0.13327   0.39591   1.00
H2       0.54480    0.01217    0.40283   1.00
H2       0.49728    0.04193    0.41620   1.00
H2       0.54828    0.01570    0.42939   1.00
C4       0.31193    0.13949    0.05067   1.00
C4       0.36556    0.16827    0.03599   1.00
C3       0.27832    0.06986    0.05657   1.00
C3       0.38665    0.12916    0.02442   1.00
C3       0.28952    0.18199    0.05984   1.00
C3       0.40059    0.24014    0.03258   1.00
C2       0.20163    0.08442    0.07972   1.00
C2       0.47343    0.23010    0.00626   1.00
C3       0.22444    0.04296    0.07060   1.00
C3       0.43952    0.15927    0.01010   1.00
C3       0.23593    0.15415    0.07425   1.00
C3       0.45174    0.26907    0.01746   1.00
H1       0.29217    0.03671    0.05089   1.00
H1       0.36395    0.07761    0.02597   1.00
C5       0.32099    0.25207    0.05463   1.00
C5       0.38408    0.28273    0.04411   1.00
H1       0.20173    -0.00789   0.07417   1.00
H1       0.45299    0.12854    0.00230   1.00
H1       0.22167    0.18566    0.08112   1.00
H1       0.47330    0.31991    0.01429   1.00
O3       0.29208    0.29004    0.06085   1.00
O3       0.42573    0.35281    0.04397   1.00
Si1      0.23926    0.29846    0.04589   1.00
Si1      0.49087    0.38755    0.05936   1.00
C6       0.21283    0.33928    0.06351   1.00
C6       0.28775    0.35429    0.02616   1.00
C6       0.17005    0.21978    0.03787   1.00
C6       0.50672    0.33332    0.07489   1.00
C6       0.56019    0.43311    0.04293   1.00
C6       0.48187    0.44689    0.07438   1.00
C6       0.19275    0.30586    0.08509   1.00
H2       0.25948    0.38810    0.06578   1.00
C6       0.15647    0.35755    0.05788   1.00
H2       0.33778    0.38372    0.03324   1.00
C6       0.29957    0.32316    0.00644   1.00
C6       0.26863    0.40808    0.01856   1.00
H2       0.15311    0.19135    0.05210   1.00
C6       0.10640    0.22066    0.02891   1.00
C6       0.18294    0.17389    0.02268   1.00
C6       0.44866    0.28319    0.08944   1.00
C6       0.53806    0.29181    0.06529   1.00
H2       0.54715    0.36958    0.08485   1.00
H2       0.56463    0.39339    0.03489   1.00
C6       0.55027    0.47595    0.02602   1.00
C6       0.63139    0.48080    0.05277   1.00
H2       0.50065    0.49185    0.06470   1.00
C6       0.40754    0.42794    0.07996   1.00
C6       0.52400    0.47192    0.09452   1.00
H2       0.23397    0.30076    0.09189   1.00
H2       0.14743    0.25518    0.08440   1.00
H2       0.18211    0.33700    0.09549   1.00
H2       0.16683    0.40467    0.06551   1.00
H2       0.15377    0.36507    0.04170   1.00
H2       0.10572    0.31831    0.06277   1.00
H2       0.34133    0.36260    -0.00252   1.00
H2       0.31378    0.28485    0.00979   1.00
H2       0.25415    0.30019    -0.00313   1.00
H2       0.26880    0.44004    0.03097   1.00
H2       0.30561    0.44280    0.00745   1.00
H2       0.21853    0.38332    0.01132   1.00
H2       0.12103    0.25741    0.01653   1.00
H2       0.06822    0.17070    0.02306   1.00
H2       0.08011    0.23296    0.04048   1.00
H2       0.18069    0.18713    0.00689   1.00
H2       0.23177    0.17680    0.02478   1.00
H2       0.14384    0.12036    0.02464   1.00
H2       0.41208    0.23665    0.08166   1.00
H2       0.46986    0.26798    0.10196   1.00
H2       0.42101    0.30616    0.09615   1.00
H2       0.55368    0.26862    0.07715   1.00
H2       0.50192    0.25054    0.05564   1.00
H2       0.58366    0.32401    0.05640   1.00
H2       0.59065    0.49266    0.01463   1.00
H2       0.50190    0.44580    0.01804   1.00
H2       0.55147    0.52128    0.03215   1.00
H2       0.64364    0.45441    0.06443   1.00
H2       0.67165    0.49832    0.04131   1.00
H2       0.63367    0.52593    0.05953   1.00
H2       0.38194    0.38172    0.08911   1.00
H2       0.40621    0.46904    0.08825   1.00
H2       0.37791    0.41939    0.06622   1.00
H2       0.52220    0.51575    0.10077   1.00
H2       0.50407    0.43192    0.10606   1.00
H2       0.57763    0.48829    0.09207   1.00
C4       0.82775    0.68933    0.05024   1.00
C4       0.80320    0.63555    0.03562   1.00
C3       0.80486    0.73726    0.05143   1.00
C3       0.75804    0.62811    0.01960   1.00
C3       0.87883    0.69671    0.06435   1.00
C3       0.82445    0.58601    0.03694   1.00
C2       0.88240    0.79867    0.07961   1.00
C2       0.75706    0.52627    0.00637   1.00
C3       0.83167    0.79067    0.06563   1.00
C3       0.73508    0.57463    0.00548   1.00
C3       0.90431    0.75017    0.07881   1.00
C3       0.80303    0.53422    0.02206   1.00
H1       0.76786    0.73464    0.04206   1.00
H1       0.74084    0.66156    0.01763   1.00
C5       0.90392    0.65048    0.06399   1.00
C5       0.86740    0.58868    0.05298   1.00
H1       0.81350    0.82409    0.06568   1.00
H1       0.70200    0.57145    -0.00568   1.00
H1       0.93956    0.75369    0.08920   1.00
H1       0.82214    0.50179    0.02246   1.00
O3       0.96072    0.66428    0.07522   1.00
O3       0.87755    0.53443    0.05689   1.00
Si1      1.03616    0.70445    0.06477   1.00
Si1      0.82250    0.47195    0.07104   1.00
C6       1.08393    0.71634    0.08709   1.00
C6       1.04239    0.64691    0.04811   1.00
C6       1.05536    0.78328    0.05385   1.00
C6       0.75066    0.47536    0.07999   1.00
C6       0.79544    0.40030    0.05536   1.00
C6       0.86788    0.46397    0.09155   1.00
C6       1.06308    0.74418    0.10592   1.00
H2       1.07002    0.66413    0.09104   1.00
C6       1.16397    0.75745    0.08673   1.00
H2       1.00584    0.59775    0.05468   1.00
C6       1.01978    0.64422    0.02555   1.00
C6       1.11147    0.64699    0.04695   1.00
H2       1.04060    0.80651    0.06590   1.00
C6       1.13211    0.83505    0.04910   1.00
C6       1.01650    0.78424    0.03421   1.00
C6       0.76325    0.53880    0.09276   1.00
C6       0.69095    0.46026    0.06503   1.00
H2       0.72779    0.43248    0.09053   1.00
H2       0.76527    0.40713    0.04367   1.00
C6       0.85286    0.39507    0.04368   1.00
C6       0.74820    0.32869    0.06503   1.00
H2       0.89028    0.43495    0.08531   1.00
C6       0.92962    0.53138    0.09958   1.00
C6       0.82661    0.42368    0.11074   1.00
H2       1.00905    0.71202    0.10953   1.00
H2       1.07288    0.79595    0.10323   1.00
H2       1.09144    0.74511    0.11945   1.00
H2       1.18419    0.73624    0.09783   1.00
H2       1.18506    0.75623    0.07203   1.00
H2       1.18452    0.81096    0.09079   1.00
H2       1.01226    0.59777    0.01812   1.00
H2       0.97150    0.64350    0.02435   1.00
H2       1.05830    0.68754    0.01691   1.00
H2       1.12718    0.63889    0.06185   1.00
H2       1.10704    0.60565    0.03730   1.00
H2       1.15190    0.69488    0.04066   1.00
H2       1.15458    0.81155    0.03975   1.00
H2       1.13860    0.88027    0.04110   1.00
H2       1.16174    0.85434    0.06294   1.00
H2       1.04134    0.78107    0.02039   1.00
H2       0.96406    0.74313    0.03359   1.00
H2       1.01528    0.83187    0.03343   1.00
H2       0.77216    0.58156    0.08313   1.00
H2       0.71870    0.52654    0.10213   1.00
H2       0.80647    0.55582    0.10300   1.00
H2       0.64667    0.45482    0.07334   1.00
H2       0.70495    0.50102    0.05406   1.00
H2       0.67347    0.41266    0.05676   1.00
H2       0.83070    0.35595    0.03188   1.00
H2       0.88771    0.44298    0.03608   1.00
H2       0.88276    0.38183    0.05373   1.00
H2       0.70521    0.32693    0.07305   1.00
H2       0.72686    0.28943    0.05325   1.00
H2       0.77630    0.31467    0.07559   1.00
H2       0.91404    0.56636    0.10559   1.00
H2       0.95731    0.52160    0.11145   1.00
H2       0.96547    0.55720    0.08733   1.00
H2       0.85850    0.41337    0.12093   1.00
H2       0.80798    0.45242    0.11929   1.00
H2       0.78301    0.37442    0.10671   1.00
C4       -0.13983   0.16715    0.04905   1.00
C4       -0.16984   0.19194    0.03477   1.00
C3       -0.11848   0.11970    0.04406   1.00
C3       -0.18716   0.16716    0.01460   1.00
C3       -0.13140   0.18994    0.06959   1.00
C3       -0.18339   0.24457    0.04079   1.00
C2       -0.08271   0.11690    0.07904   1.00
C2       -0.23181   0.24364    0.00694   1.00
C3       -0.09106   0.09494    0.05865   1.00
C3       -0.21670   0.19272    0.00100   1.00
C3       -0.10245   0.16533    0.08400   1.00
C3       -0.21585   0.26755    0.02713   1.00
H1       -0.12201   0.10191    0.02967   1.00
H1       -0.17921   0.12952    0.00923   1.00
C5       -0.15166   0.23738    0.07558   1.00
C5       -0.16509   0.27359    0.06043   1.00
H1       -0.07698   0.06030    0.05419   1.00
H1       -0.22760   0.17328    -0.01345   1.00
H1       -0.09497   0.18357    0.09854   1.00
H1       -0.22917   0.30210    0.03208   1.00
O3       -0.15410   0.25048    0.09589   1.00
O3       -0.16514   0.33301    0.06520   1.00
Si1      -0.22547   0.20762    0.10841   1.00
Si1      -0.09791   0.40607    0.05980   1.00
C6       -0.19198   0.23834    0.13279   1.00
C6       -0.28017   0.23762    0.10053   1.00
C6       -0.26052   0.11842    0.10683   1.00
C6       -0.02916   0.40556    0.04726   1.00
C6       -0.13083   0.44590    0.04433   1.00
C6       -0.06967   0.45258    0.08260   1.00
C6       -0.12494   0.23778    0.13835   1.00
H2       -0.17708   0.29214    0.13168   1.00
C6       -0.23824   0.21098    0.15218   1.00
H2       -0.24399   0.28908    0.09535   1.00
C6       -0.32888   0.20164    0.08216   1.00
C6       -0.32547   0.24646    0.11681   1.00
H2       -0.21631   0.11266    0.11003   1.00
C6       -0.31596   0.07356    0.12291   1.00
C6       -0.29096   0.08097    0.08614   1.00
C6       0.00386    0.36682    0.05755   1.00
C6       -0.03533   0.38748    0.02413   1.00
H2       0.01019    0.45931    0.04769   1.00
H2       -0.14412   0.41654    0.03028   1.00
C6       -0.19852   0.44166    0.05178   1.00
C6       -0.08152   0.52191    0.03831   1.00
H2       -0.10304   0.47405    0.08457   1.00
C6       -0.07937   0.41029    0.10223   1.00
C6       0.00496    0.51442    0.08342   1.00
H2       -0.08480   0.26569    0.12719   1.00
H2       -0.13387   0.18573    0.13918   1.00
H2       -0.10481   0.26231    0.15300   1.00
H2       -0.22174   0.25159    0.16347   1.00
H2       -0.29175   0.19259    0.14900   1.00
H2       -0.23495   0.16941    0.15947   1.00
H2       -0.34878   0.23327    0.07614   1.00
H2       -0.30281   0.19299    0.06964   1.00
H2       -0.37246   0.15287    0.08665   1.00
H2       -0.29463   0.27977    0.12914   1.00
H2       -0.35294   0.27025    0.11028   1.00
H2       -0.36335   0.19727    0.12310   1.00
H2       -0.35747   0.08494    0.12312   1.00
H2       -0.33811   0.01898    0.11990   1.00
H2       -0.29418   0.08122    0.13801   1.00
H2       -0.34449   0.06639    0.08438   1.00
H2       -0.26422   0.11111    0.07297   1.00
H2       -0.28827   0.03411    0.08535   1.00
H2       -0.02446   0.31243    0.05422   1.00
H2       0.05579    0.38613    0.05195   1.00
H2       0.00724    0.37318    0.07395   1.00
H2       0.01412    0.39870    0.01800   1.00
H2       -0.07063   0.33372    0.02129   1.00
H2       -0.05158   0.41734    0.01520   1.00
H2       -0.22093   0.45722    0.03968   1.00
H2       -0.23661   0.38954    0.05596   1.00
H2       -0.19015   0.47454    0.06483   1.00
H2       -0.03334   0.52938    0.03232   1.00
H2       -0.10439   0.53777    0.02642   1.00
H2       -0.07071   0.55606    0.05122   1.00
H2       -0.05027   0.38384    0.10179   1.00
H2       -0.06433   0.44235    0.11578   1.00
H2       -0.13279   0.37220    0.10404   1.00
H2       0.01276    0.54504    0.09704   1.00
H2       0.04239    0.49739    0.08368   1.00
H2       0.01620    0.54841    0.07049   1.00
C4       0.52829    1.02542    0.88267   1.00
C4       0.49905    0.97013    0.86854   1.00
C3       0.59893    1.06272    0.88734   1.00
C3       0.53640    0.94266    0.85908   1.00
C3       0.48480    1.04424    0.89303   1.00
C3       0.42862    0.94031    0.86340   1.00
C2       0.58298    1.13435    0.91217   1.00
C2       0.43584    0.85725    0.84047   1.00
C3       0.62551    1.11543    0.90177   1.00
C3       0.50585    0.88819    0.84529   1.00
C3       0.51280    1.09841    0.90725   1.00
C3       0.39815    0.88358    0.85013   1.00
H1       0.63318    1.05284    0.88035   1.00
H1       0.58678    0.96111    0.86204   1.00
C5       0.41369    1.00904    0.88905   1.00
C5       0.38876    0.96675    0.87164   1.00
H1       0.67696    1.14027    0.90463   1.00
H1       0.53551    0.87082    0.83879   1.00
H1       0.48127    1.11259    0.91415   1.00
H1       0.34676    0.86005    0.84762   1.00
O3       0.37062    1.01948    0.90139   1.00
O3       0.32500    0.94799    0.86392   1.00
Si1      0.33371    0.96894    0.92066   1.00
Si1      0.31944    0.98869    0.84426   1.00
C6       0.29847    1.01563    0.93158   1.00
C6       0.26956    0.89027    0.91093   1.00
C6       0.39182    0.96355    0.93735   1.00
C6       0.39579    1.05310    0.83320   1.00
C6       0.27497    0.92333    0.82651   1.00
C6       0.26683    1.02210    0.85120   1.00
C6       0.34808    1.09438    0.93372   1.00
H2       0.26101    1.01019    0.92020   1.00
C6       0.25837    0.99281    0.95217   1.00
H2       0.25811    0.90545    0.89641   1.00
C6       0.28852    0.83430    0.90583   1.00
C6       0.19987    0.85172    0.92243   1.00
H2       0.43036    1.01715    0.93944   1.00
C6       0.36537    0.93445    0.95911   1.00
C6       0.43094    0.92610    0.93029   1.00
C6       0.44658    1.11351    0.84697   1.00
C6       0.44031    1.03262    0.82001   1.00
H2       0.37697    1.07588    0.82223   1.00
H2       0.31155    0.90752    0.82224   1.00
C6       0.21121    0.85737    0.83473   1.00
C6       0.25224    0.94266    0.80637   1.00
H2       0.21515    0.97895    0.84958   1.00
C6       0.27170    1.04537    0.87369   1.00
C6       0.26960    1.08082    0.83793   1.00
H2       0.37095    1.11764    0.91917   1.00
H2       0.38931    1.10544    0.94438   1.00
H2       0.32109    1.12010    0.93912   1.00
H2       0.21756    1.00531    0.95222   1.00
H2       0.23510    0.93836    0.95492   1.00
H2       0.29084    1.01901    0.96518   1.00
H2       0.24971    0.79485    0.89610   1.00
H2       0.33647    0.85505    0.89760   1.00
H2       0.29208    0.80935    0.91957   1.00
H2       0.17678    0.88372    0.92419   1.00
H2       0.16288    0.80655    0.91404   1.00
H2       0.20615    0.83481    0.93738   1.00
H2       0.31893    0.88470    0.95836   1.00
H2       0.40317    0.92855    0.96786   1.00
H2       0.35532    0.96890    0.96798   1.00
H2       0.40200    0.87144    0.93336   1.00
H2       0.44312    0.93200    0.91427   1.00
H2       0.47930    0.94646    0.93846   1.00
H2       0.47943    1.10047    0.85563   1.00
H2       0.47991    1.15802    0.83773   1.00
H2       0.42037    1.12943    0.85757   1.00
H2       0.48004    1.07704    0.81198   1.00
H2       0.46596    1.01212    0.82912   1.00
H2       0.41037    0.99524    0.80839   1.00
H2       0.19421    0.81594    0.82369   1.00
H2       0.22308    0.83946    0.84871   1.00
H2       0.16846    0.86553    0.83777   1.00
H2       0.29432    0.98729    0.79919   1.00
H2       0.23428    0.90080    0.79544   1.00
H2       0.21056    0.95288    0.80899   1.00
H2       0.32238    1.08714    0.87748   1.00
H2       0.23471    1.06161    0.87703   1.00
H2       0.26043    1.00310    0.88376   1.00
H2       0.22774    1.08974    0.84182   1.00
H2       0.31732    1.12870    0.84021   1.00
H2       0.26461    1.06844    0.82182   1.00
C4       -0.01951   0.50191    0.88469   1.00
C4       0.03425    0.52648    0.87006   1.00
C3       -0.01943   0.46887    0.90299   1.00
C3       0.09031    0.51500    0.87137   1.00
C3       -0.07734   0.50960    0.88083   1.00
C3       0.03256    0.56491    0.85313   1.00
C2       -0.13175   0.45064    0.91303   1.00
C2       0.14015    0.57656    0.83961   1.00
C3       -0.07415   0.44359    0.91672   1.00
C3       0.14215    0.53987    0.85667   1.00
C3       -0.13144   0.48487    0.89506   1.00
C3       0.08377    0.58701    0.83804   1.00
H1       0.02048    0.46242    0.90691   1.00
H1       0.09492    0.48786    0.88296   1.00
C5       -0.08062   0.54219    0.86283   1.00
C5       -0.02044   0.58060    0.85124   1.00
H1       -0.07147   0.41970    0.92963   1.00
H1       0.18176    0.53051    0.85849   1.00
H1       -0.17171   0.49243    0.89235   1.00
H1       0.07951    0.61065    0.82537   1.00
O3       -0.14081   0.53944    0.85753   1.00
O3       -0.01602   0.62850    0.83739   1.00
Si1      -0.19423   0.47944    0.84236   1.00
Si1      0.02473    0.70887    0.84380   1.00
C6       -0.26184   0.49659    0.84482   1.00
C6       -0.15892   0.49910    0.81777   1.00
C6       -0.21836   0.39651    0.85093   1.00
C6       0.06395    0.73106    0.86794   1.00
C6       0.08727    0.74656    0.82488   1.00
C6       -0.03258   0.73956    0.84105   1.00
C6       -0.28016   0.50634    0.86704   1.00
H2       -0.24069   0.54668    0.83771   1.00
C6       -0.33215   0.45056    0.83405   1.00
H2       -0.12576   0.55430    0.81864   1.00
C6       -0.11207   0.47026    0.81095   1.00
C6       -0.20744   0.48646    0.79935   1.00
H2       -0.23074   0.39863    0.86684   1.00
C6       -0.28384   0.33574    0.84129   1.00
C6       -0.16472   0.37176    0.85074   1.00
C6       0.01827    0.69777    0.88704   1.00
C6       0.13154    0.72961    0.87168   1.00
H2       0.08002    0.78515    0.86893   1.00
H2       0.12234    0.72790    0.82811   1.00
C6       0.06266    0.72389    0.80256   1.00
C6       0.13109    0.82615    0.82464   1.00
H2       -0.03155   0.74977    0.82483   1.00
C6       -0.10885   0.68814    0.84592   1.00
C6       -0.01534   0.80768    0.85202   1.00
H2       -0.23576   0.54610    0.87502   1.00
H2       -0.29987   0.45918    0.87578   1.00
H2       -0.31876   0.52187    0.86715   1.00
H2       -0.35476   0.48139    0.82954   1.00
H2       -0.32773   0.42575    0.82049   1.00
H2       -0.36905   0.41065    0.84404   1.00
H2       -0.08238   0.49732    0.79754   1.00
H2       -0.07531   0.47656    0.82259   1.00
H2       -0.14211   0.41629    0.80704   1.00
H2       -0.23587   0.51330    0.80124   1.00
H2       -0.17867   0.50554    0.78522   1.00
H2       -0.24339   0.43212    0.79732   1.00
H2       -0.28050   0.33676    0.82476   1.00
H2       -0.29212   0.28622    0.84645   1.00
H2       -0.32949   0.33681    0.84574   1.00
H2       -0.16357   0.34927    0.83620   1.00
H2       -0.11312   0.41198    0.85386   1.00
H2       -0.17766   0.33256    0.86232   1.00
H2       0.01114    0.64735    0.89011   1.00
H2       0.04205    0.72889    0.90051   1.00
H2       -0.03178   0.69304    0.88551   1.00
H2       0.15438    0.75361    0.88619   1.00
H2       0.12311    0.67795    0.87223   1.00
H2       0.16990    0.75785    0.86012   1.00
H2       0.10640    0.74067    0.79241   1.00
H2       0.03247    0.66840    0.80128   1.00
H2       0.03193    0.74522    0.79694   1.00
H2       0.15224    0.84656    0.83957   1.00
H2       0.17427    0.84294    0.81426   1.00
H2       0.10124    0.84917    0.81957   1.00
H2       -0.11638   0.67173    0.86172   1.00
H2       -0.14144   0.70981    0.84269   1.00
H2       -0.12677   0.64309    0.83648   1.00
H2       -0.04861   0.82657    0.84669   1.00
H2       -0.02204   0.80065    0.86843   1.00
H2       0.03688    0.84784    0.84905   1.00
C4       0.49910    0.47938    0.88464   1.00
C4       0.47438    0.50834    0.86998   1.00
C3       0.54259    0.51684    0.90099   1.00
C3       0.49558    0.57885    0.86911   1.00
C3       0.48046    0.40936    0.88283   1.00
C3       0.42559    0.46488    0.85531   1.00
C2       0.54964    0.41799    0.91307   1.00
C2       0.42316    0.56319    0.83957   1.00
C3       0.56750    0.48714    0.91476   1.00
C3       0.47022    0.60546    0.85445   1.00
C3       0.50510    0.38001    0.89709   1.00
C3       0.40289    0.49316    0.84013   1.00
H1       0.55726    0.56673    0.90342   1.00
H1       0.53038    0.61302    0.87903   1.00
C5       0.43710    0.36902    0.86683   1.00
C5       0.40014    0.39359    0.85572   1.00
H1       0.59919    0.51688    0.92619   1.00
H1       0.48693    0.65678    0.85466   1.00
H1       0.48977    0.32925    0.89593   1.00
H1       0.37133    0.46206    0.82896   1.00
O3       0.42846    0.30529    0.86312   1.00
O3       0.34370    0.34937    0.84442   1.00
Si1      0.47673    0.29625    0.84646   1.00
Si1      0.26789    0.32295    0.85383   1.00
C6       0.44957    0.20991    0.85167   1.00
C6       0.44976    0.30587    0.82222   1.00
C6       0.56475    0.34887    0.85126   1.00
C6       0.26163    0.35468    0.87776   1.00
C6       0.22862    0.34763    0.83537   1.00
C6       0.22552    0.23319    0.85430   1.00
C6       0.44690    0.19087    0.87465   1.00
H2       0.39649    0.18431    0.84667   1.00
C6       0.48259    0.17215    0.84056   1.00
H2       0.39683    0.29175    0.82505   1.00
C6       0.48411    0.37885    0.81266   1.00
C6       0.44720    0.25801    0.80469   1.00
H2       0.56810    0.34041    0.86744   1.00
C6       0.61462    0.33000    0.84037   1.00
C6       0.59891    0.42815    0.84829   1.00
C6       0.29887    0.34403    0.89616   1.00
C6       0.27510    0.42942    0.87952   1.00
H2       0.20734    0.32344    0.88113   1.00
H2       0.25513    0.40308    0.83662   1.00
C6       0.23843    0.33262    0.81281   1.00
C6       0.15098    0.32241    0.83809   1.00
H2       0.20730    0.21835    0.83878   1.00
C6       0.27067    0.20045    0.85854   1.00
C6       0.16126    0.19470    0.86824   1.00
H2       0.41529    0.20557    0.88338   1.00
H2       0.49786    0.21603    0.88136   1.00
H2       0.42472    0.13587    0.87664   1.00
H2       0.44449    0.11844    0.83835   1.00
H2       0.50314    0.19358    0.82574   1.00
H2       0.52388    0.17302    0.84937   1.00
H2       0.45372    0.38048    0.80001   1.00
H2       0.48844    0.41710    0.82349   1.00
H2       0.53480    0.39391    0.80681   1.00
H2       0.41543    0.20437    0.80875   1.00
H2       0.42476    0.26555    0.79093   1.00
H2       0.49827    0.26791    0.80084   1.00
H2       0.60631    0.32577    0.82399   1.00
H2       0.66812    0.36796    0.84311   1.00
H2       0.60869    0.28234    0.84609   1.00
H2       0.61605    0.44361    0.83272   1.00
H2       0.56563    0.44807    0.85205   1.00
H2       0.64381    0.45452    0.85805   1.00
H2       0.35253    0.38316    0.89675   1.00
H2       0.27587    0.34687    0.91045   1.00
H2       0.29562    0.29443    0.89579   1.00
H2       0.25996    0.43811    0.89448   1.00
H2       0.32869    0.46724    0.87759   1.00
H2       0.24562    0.43997    0.86850   1.00
H2       0.22254    0.35980    0.80244   1.00
H2       0.29194    0.34999    0.80947   1.00
H2       0.20864    0.27839    0.80923   1.00
H2       0.13958    0.33270    0.85333   1.00
H2       0.13488    0.34888    0.82751   1.00
H2       0.11979    0.26781    0.83511   1.00
H2       0.29427    0.21379    0.87350   1.00
H2       0.24134    0.14491    0.85739   1.00
H2       0.31117    0.21807    0.84735   1.00
H2       0.13379    0.14008    0.86487   1.00
H2       0.17536    0.20072    0.88427   1.00
H2       0.12529    0.21280    0.86596   1.00
C4       0.35781    0.19535    0.28369   1.00
C4       0.30257    0.16577    0.29783   1.00
C3       0.38211    0.26042    0.27468   1.00
C3       0.26219    0.19546    0.30295   1.00
C3       0.39029    0.15776    0.27788   1.00
C3       0.28638    0.10310    0.30754   1.00
C2       0.46755    0.25013    0.25445   1.00
C2       0.19073    0.10201    0.32623   1.00
C3       0.43520    0.28693    0.26038   1.00
C3       0.20821    0.16481    0.31690   1.00
C3       0.44461    0.18595    0.26371   1.00
C3       0.22995    0.07160    0.32089   1.00
H1       0.36210    0.29056    0.27830   1.00
H1       0.27052    0.23999    0.29661   1.00
C5       0.36849    0.09240    0.28632   1.00
C5       0.32610    0.07185    0.30375   1.00
H1       0.45028    0.33407    0.25426   1.00
H1       0.18113    0.18890    0.32016   1.00
H1       0.46867    0.15923    0.26011   1.00
H1       0.21634    0.02464    0.32671   1.00
O3       0.39187    0.05173    0.27826   1.00
O3       0.32015    0.01921    0.31582   1.00
Si1      0.34757    -0.00412   0.26077   1.00
Si1      0.36396    0.03767    0.33683   1.00
C6       0.40871    -0.02799   0.25474   1.00
C6       0.27565    -0.07139   0.27267   1.00
C6       0.32938    0.03188    0.23960   1.00
C6       0.41485    0.12448    0.34359   1.00
C6       0.30095    -0.00481   0.35536   1.00
C6       0.41431    -0.00149   0.33561   1.00
C6       0.48339    0.03210    0.25141   1.00
H2       0.41056    -0.05313   0.26867   1.00
C6       0.39578    -0.08010   0.23723   1.00
H2       0.29345    -0.06770   0.28825   1.00
C6       0.20894    -0.06706   0.27406   1.00
C6       0.25161    -0.14626   0.26586   1.00
H2       0.37913    0.07633    0.23632   1.00
C6       0.30636    -0.01132   0.21961   1.00
C6       0.27789    0.05892    0.24189   1.00
C6       0.47042    0.17341    0.32821   1.00
C6       0.37998    0.16428    0.35200   1.00
H2       0.44321    0.12182    0.35661   1.00
H2       0.27417    0.02399    0.35594   1.00
C6       0.24497    -0.07983   0.35026   1.00
C6       0.32542    -0.00578   0.37748   1.00
H2       0.37931    -0.05436   0.33988   1.00
C6       0.44127    -0.00567   0.31421   1.00
C6       0.47662    0.02449    0.35036   1.00
H2       0.50170    0.06626    0.26449   1.00
H2       0.48671    0.06227    0.23807   1.00
H2       0.51885    0.01308    0.24930   1.00
H2       0.41947    -0.11058   0.24098   1.00
H2       0.34194    -0.11522   0.23452   1.00
H2       0.41814    -0.05472   0.22286   1.00
H2       0.17394    -0.10320   0.28528   1.00
H2       0.21910    -0.01685   0.27885   1.00
H2       0.18224    -0.07932   0.25954   1.00
H2       0.29260    -0.15812   0.26719   1.00
H2       0.21002    -0.18323   0.27543   1.00
H2       0.23321    -0.15495   0.25022   1.00
H2       0.26294    -0.06214   0.22237   1.00
H2       0.29167    0.01281    0.20779   1.00
H2       0.34769    -0.01628   0.21306   1.00
H2       0.22524    0.01886    0.23934   1.00
H2       0.27957    0.08067    0.25666   1.00
H2       0.28941    0.09898    0.23072   1.00
H2       0.44909    0.19166    0.31663   1.00
H2       0.51014    0.21837    0.33603   1.00
H2       0.49553    0.14919    0.32064   1.00
H2       0.41817    0.21374    0.35813   1.00
H2       0.35225    0.17436    0.34032   1.00
H2       0.34487    0.13720    0.36440   1.00
H2       0.20232    -0.09765   0.36089   1.00
H2       0.22401    -0.08354   0.33508   1.00
H2       0.26471    -0.11494   0.35112   1.00
H2       0.36337    0.04513    0.38259   1.00
H2       0.28255    -0.02458   0.38806   1.00
H2       0.34712    -0.03921   0.37873   1.00
H2       0.47524    0.04464    0.30785   1.00
H2       0.46851    -0.03411   0.31458   1.00
H2       0.39873    -0.03235   0.30384   1.00
H2       0.49707    -0.01022   0.35034   1.00
H2       0.51786    0.07490    0.34594   1.00
H2       0.46238    0.02736    0.36597   1.00
C4       0.83333    0.64021    0.28430   1.00
C4       0.85991    0.69536    0.29849   1.00
C3       0.84136    0.58220    0.28635   1.00
C3       0.90236    0.70097    0.31510   1.00
C3       0.79751    0.64318    0.26687   1.00
C3       0.84337    0.74809    0.29614   1.00
C2       0.78098    0.53244    0.25443   1.00
C2       0.91290    0.80928    0.32625   1.00
C3       0.81627    0.52997    0.27178   1.00
C3       0.92762    0.75602    0.32871   1.00
C3       0.77148    0.58934    0.25254   1.00
C3       0.87172    0.80458    0.30951   1.00
H1       0.86547    0.57608    0.29853   1.00
H1       0.91653    0.66547    0.31772   1.00
C5       0.78768    0.69975    0.26391   1.00
C5       0.79917    0.74458    0.28037   1.00
H1       0.82404    0.48949    0.27400   1.00
H1       0.95761    0.75709    0.34055   1.00
H1       0.74426    0.59126    0.24040   1.00
H1       0.86294    0.84402    0.30686   1.00
O3       0.76342    0.70801    0.24559   1.00
O3       0.77184    0.78718    0.28020   1.00
Si1      0.81692    0.75526    0.22796   1.00
Si1      0.70248    0.76532    0.29315   1.00
C6       0.75647    0.73477    0.20841   1.00
C6       0.85231    0.84102    0.23556   1.00
C6       0.87693    0.73013    0.22163   1.00
C6       0.66721    0.68929    0.30753   1.00
C6       0.72668    0.83502    0.30945   1.00
C6       0.64141    0.76266    0.27605   1.00
C6       0.70368    0.65701    0.20562   1.00
H2       0.72682    0.75745    0.21394   1.00
C6       0.77932    0.76342    0.18636   1.00
H2       0.81276    0.83859    0.24556   1.00
C6       0.91924    0.87375    0.24847   1.00
C6       0.86403    0.89572    0.21912   1.00
H2       0.84462    0.67500    0.21984   1.00
C6       0.91627    0.75708    0.20110   1.00
C6       0.93395    0.74149    0.23732   1.00
C6       0.64791    0.62131    0.29621   1.00
C6       0.70233    0.68772    0.32784   1.00
H2       0.61875    0.68382    0.31252   1.00
H2       0.76167    0.83147    0.32009   1.00
C6       0.76826    0.90738    0.29957   1.00
C6       0.66947    0.83582    0.32253   1.00
H2       0.65478    0.81593    0.27451   1.00
C6       0.64387    0.73878    0.25405   1.00
C6       0.56463    0.72291    0.28258   1.00
H2       0.67642    0.63406    0.21970   1.00
H2       0.72876    0.62889    0.20070   1.00
H2       0.66506    0.64912    0.19432   1.00
H2       0.74067    0.77213    0.17927   1.00
H2       0.82726    0.81144    0.18603   1.00
H2       0.78513    0.72778    0.17656   1.00
H2       0.92757    0.92075    0.25573   1.00
H2       0.91710    0.84029    0.26064   1.00
H2       0.96371    0.88670    0.23904   1.00
H2       0.81696    0.88255    0.21105   1.00
H2       0.88118    0.94568    0.22600   1.00
H2       0.90278    0.90150    0.20817   1.00
H2       0.94100    0.81257    0.20017   1.00
H2       0.95559    0.74291    0.19912   1.00
H2       0.88238    0.73489    0.18819   1.00
H2       0.97899    0.79203    0.23592   1.00
H2       0.91737    0.73581    0.25297   1.00
H2       0.95055    0.70428    0.23475   1.00
H2       0.69184    0.61436    0.29433   1.00
H2       0.60981    0.57753    0.30485   1.00
H2       0.62614    0.61882    0.28130   1.00
H2       0.66961    0.64096    0.33630   1.00
H2       0.75045    0.68907    0.32528   1.00
H2       0.71178    0.72987    0.33786   1.00
H2       0.79071    0.94669    0.31131   1.00
H2       0.81044    0.91169    0.29040   1.00
H2       0.73642    0.91930    0.28994   1.00
H2       0.63889    0.78770    0.33053   1.00
H2       0.69192    0.87583    0.33407   1.00
H2       0.63559    0.84593    0.31322   1.00
H2       0.63380    0.68641    0.25361   1.00
H2       0.60714    0.74242    0.24415   1.00
H2       0.69402    0.77127    0.24756   1.00
H2       0.53346    0.73372    0.27222   1.00
H2       0.54441    0.66784    0.28248   1.00
H2       0.55727    0.73763    0.29770   1.00
C4       0.80668    0.16641    0.28429   1.00
C4       0.83530    0.13986    0.29847   1.00
C3       0.73944    0.15561    0.28584   1.00
C3       0.79763    0.09483    0.31452   1.00
C3       0.84670    0.20513    0.26738   1.00
C3       0.90551    0.15916    0.29670   1.00
C2       0.75136    0.21894    0.25444   1.00
C2       0.89650    0.08718    0.32624   1.00
C3       0.71237    0.18080    0.27127   1.00
C3       0.82751    0.06970    0.32814   1.00
C3       0.81889    0.23118    0.25306   1.00
C3       0.93387    0.13096    0.31005   1.00
H1       0.70825    0.12932    0.29763   1.00
H1       0.74728    0.07863    0.31670   1.00
C5       0.91433    0.21781    0.26494   1.00
C5       0.94694    0.20595    0.28153   1.00
H1       0.66325    0.17096    0.27311   1.00
H1       0.79794    0.03776    0.33956   1.00
H1       0.84884    0.26046    0.24132   1.00
H1       0.98297    0.14184    0.30778   1.00
O3       0.94855    0.24507    0.24702   1.00
O3       1.01713    0.23556    0.28202   1.00
Si1      0.94640    0.19459    0.22899   1.00
Si1      1.06120    0.30380    0.29576   1.00
C6       0.98683    0.25771    0.21015   1.00
C6       0.99836    0.16111    0.23667   1.00
C6       0.86280    0.13317    0.22167   1.00
C6       1.01655    0.33492    0.31011   1.00
C6       1.10676    0.28003    0.31219   1.00
C6       1.12015    0.36799    0.27951   1.00
C6       0.95949    0.30867    0.20756   1.00
H2       1.03833    0.28819    0.21624   1.00
C6       0.99620    0.23825    0.18800   1.00
H2       1.03344    0.20012    0.24719   1.00
C6       0.96482    0.09268    0.24887   1.00
C6       1.04453    0.15337    0.22045   1.00
H2       0.83839    0.16406    0.21995   1.00
C6       0.85412    0.09664    0.20079   1.00
C6       0.81684    0.07364    0.23664   1.00
C6       0.96739    0.35318    0.29862   1.00
C6       0.97831    0.29662    0.32991   1.00
H2       1.05780    0.38348    0.31573   1.00
H2       1.06772    0.24294    0.32231   1.00
C6       1.14099    0.24179    0.30223   1.00
C6       1.16205    0.33679    0.32605   1.00
H2       1.16156    0.35672    0.27814   1.00
C6       1.09588    0.36715    0.25733   1.00
C6       1.15398    0.44383    0.28682   1.00
H2       0.96116    0.33383    0.22186   1.00
H2       0.90684    0.28255    0.20212   1.00
H2       0.99050    0.34906    0.19675   1.00
H2       1.04368    0.27884    0.18150   1.00
H2       0.99831    0.19139    0.18732   1.00
H2       0.95528    0.23204    0.17788   1.00
H2       1.00378    0.08524    0.25632   1.00
H2       0.93142    0.09203    0.26084   1.00
H2       0.93560    0.04903    0.23891   1.00
H2       1.07806    0.20178    0.21295   1.00
H2       1.07792    0.13710    0.22742   1.00
H2       1.01378    0.11544    0.20901   1.00
H2       0.88662    0.07381    0.19990   1.00
H2       0.80145    0.05623    0.19818   1.00
H2       0.86610    0.13182    0.18821   1.00
H2       0.82449    0.02997    0.23495   1.00
H2       0.82549    0.08842    0.25246   1.00
H2       0.76296    0.05551    0.23359   1.00
H2       0.91756    0.30834    0.29609   1.00
H2       0.95903    0.38917    0.30748   1.00
H2       0.98784    0.37705    0.28400   1.00
H2       0.96167    0.32704    0.33850   1.00
H2       0.93292    0.24794    0.32670   1.00
H2       1.01091    0.28751    0.34008   1.00
H2       1.15779    0.21910    0.31391   1.00
H2       1.10517    0.20008    0.29251   1.00
H2       1.18537    0.27588    0.29313   1.00
H2       1.14198    0.36503    0.33414   1.00
H2       1.17958    0.31416    0.33754   1.00
H2       1.20654    0.37285    0.31728   1.00
H2       1.05239    0.37533    0.25668   1.00
H2       1.13664    0.40592    0.24796   1.00
H2       1.08069    0.31814    0.25038   1.00
H2       1.19665    0.47728    0.27698   1.00
H2       1.11761    0.46220    0.28663   1.00
H2       1.17447    0.45011    0.30213   1.00
C4       0.80855    0.64669    0.78216   1.00
C4       0.83672    0.70032    0.79685   1.00
C3       0.75431    0.63493    0.76890   1.00
C3       0.80948    0.74353    0.80101   1.00
C3       0.83500    0.60133    0.78072   1.00
C3       0.89553    0.71204    0.80807   1.00
C2       0.75214    0.53507    0.75356   1.00
C2       0.89572    0.80665    0.82712   1.00
C3       0.72659    0.58045    0.75507   1.00
C3       0.83852    0.79565    0.81560   1.00
C3       0.80718    0.54745    0.76640   1.00
C3       0.92224    0.76292    0.82330   1.00
H1       0.73351    0.66574    0.76886   1.00
H1       0.76750    0.73814    0.79367   1.00
C5       0.88924    0.61027    0.79352   1.00
C5       0.92705    0.67263    0.80419   1.00
H1       0.68707    0.57416    0.74597   1.00
H1       0.81701    0.82570    0.81784   1.00
H1       0.82792    0.51647    0.76515   1.00
H1       0.96164    0.76779    0.83209   1.00
O3       0.90689    0.56026    0.79449   1.00
O3       0.99095    0.69160    0.81183   1.00
Si1      0.87355    0.50143    0.81196   1.00
Si1      1.05813    0.74683    0.79926   1.00
C6       0.90552    0.44964    0.80276   1.00
C6       0.91182    0.53980    0.83524   1.00
C6       0.78352    0.45712    0.81198   1.00
C6       1.04578    0.78207    0.77683   1.00
C6       1.10248    0.81201    0.81706   1.00
C6       1.10734    0.70812    0.79410   1.00
C6       0.89638    0.43389    0.77945   1.00
H2       0.96036    0.48215    0.80504   1.00
C6       0.88624    0.38001    0.81324   1.00
H2       0.96048    0.58255    0.83029   1.00
C6       0.87742    0.57173    0.84842   1.00
C6       0.93033    0.49866    0.85052   1.00
H2       0.77170    0.44511    0.79592   1.00
C6       0.74640    0.38724    0.82348   1.00
C6       0.74459    0.49486    0.81894   1.00
C6       1.00169    0.73209    0.75955   1.00
C6       1.02358    0.83729    0.77834   1.00
H2       1.09736    0.81029    0.77066   1.00
H2       1.07084    0.83551    0.81875   1.00
C6       1.10879    0.78852    0.83891   1.00
C6       1.17523    0.87055    0.81104   1.00
H2       1.13519    0.71417    0.80818   1.00
C6       1.06709    0.62977    0.79012   1.00
C6       1.16260    0.73975    0.77700   1.00
H2       0.91849    0.48066    0.77047   1.00
H2       0.84251    0.40316    0.77540   1.00
H2       0.92203    0.40611    0.77474   1.00
H2       0.92892    0.37043    0.81221   1.00
H2       0.87374    0.37877    0.82921   1.00
H2       0.84285    0.33682    0.80594   1.00
H2       0.91281    0.60586    0.85993   1.00
H2       0.86245    0.60233    0.83939   1.00
H2       0.83254    0.53236    0.85630   1.00
H2       0.96340    0.48221    0.84354   1.00
H2       0.95837    0.52992    0.86359   1.00
H2       0.88450    0.45400    0.85626   1.00
H2       0.76439    0.39271    0.83911   1.00
H2       0.69108    0.36587    0.82390   1.00
H2       0.75399    0.34896    0.81590   1.00
H2       0.73638    0.49169    0.83531   1.00
H2       0.77061    0.54844    0.81497   1.00
H2       0.69432    0.47154    0.81177   1.00
H2       0.94739    0.71173    0.76211   1.00
H2       1.01393    0.75853    0.74495   1.00
H2       1.01072    0.68941    0.75794   1.00
H2       1.02749    0.86082    0.76354   1.00
H2       0.97100    0.81586    0.78332   1.00
H2       1.05609    0.87868    0.78861   1.00
H2       1.12646    0.83100    0.84959   1.00
H2       1.05953    0.74822    0.84449   1.00
H2       1.14471    0.76972    0.83944   1.00
H2       1.17535    0.89161    0.79614   1.00
H2       1.19331    0.91260    0.82190   1.00
H2       1.21212    0.85286    0.81093   1.00
H2       1.03482    0.61666    0.77670   1.00
H2       1.10127    0.60916    0.78824   1.00
H2       1.03449    0.60375    0.80300   1.00
H2       1.19629    0.71812    0.77739   1.00
H2       1.13927    0.72984    0.76196   1.00
H2       1.19494    0.79472    0.77880   1.00
C4       0.35588    0.17017    0.78293   1.00
C4       0.30091    0.14343    0.79717   1.00
C3       0.35989    0.21051    0.76593   1.00
C3       0.24159    0.14909    0.79484   1.00
C3       0.40963    0.15519    0.78550   1.00
C3       0.30492    0.10915    0.81484   1.00
C2       0.46703    0.21949    0.75424   1.00
C2       0.19125    0.08663    0.82644   1.00
C3       0.41370    0.23419    0.75191   1.00
C3       0.18853    0.12205    0.80915   1.00
C3       0.46413    0.18063    0.77140   1.00
C3       0.24962    0.07973    0.82863   1.00
H1       0.32395    0.22407    0.76327   1.00
H1       0.23498    0.17265    0.78260   1.00
C5       0.40874    0.11515    0.80218   1.00
C5       0.36372    0.10382    0.81857   1.00
H1       0.41363    0.26273    0.73982   1.00
H1       0.14713    0.12819    0.80676   1.00
H1       0.50328    0.17106    0.77375   1.00
H1       0.25137    0.05161    0.84051   1.00
O3       0.45409    0.09138    0.80277   1.00
O3       0.37459    0.08325    0.83727   1.00
Si1      0.43159    0.01571    0.79387   1.00
Si1      0.41056    0.13998    0.85518   1.00
C6       0.51240    0.02213    0.79559   1.00
C6       0.37358    -0.04454   0.81125   1.00
C6       0.40278    0.00402    0.76851   1.00
C6       0.43124    0.22483    0.85004   1.00
C6       0.35066    0.10700    0.87495   1.00
C6       0.48383    0.13780    0.86300   1.00
C6       0.57387    0.08951    0.78705   1.00
H2       0.52046    0.02425    0.81197   1.00
C6       0.52399    -0.03676   0.78774   1.00
H2       0.38761    -0.01538   0.82535   1.00
C6       0.29574    -0.07107   0.80826   1.00
C6       0.37855    -0.10971   0.81587   1.00
H2       0.44226    0.05034    0.76120   1.00
C6       0.40008    -0.05705   0.75653   1.00
C6       0.33277    -0.00047   0.76352   1.00
C6       0.47915    0.26211    0.83165   1.00
C6       0.37311    0.24318    0.84929   1.00
H2       0.46058    0.25190    0.86345   1.00
H2       0.30848    0.11296    0.86946   1.00
C6       0.31894    0.02901    0.87940   1.00
C6       0.37219    0.14420    0.89590   1.00
H2       0.46418    0.09431    0.87331   1.00
C6       0.52251    0.12208    0.84621   1.00
C6       0.53962    0.20020    0.87518   1.00
H2       0.57694    0.13458    0.79413   1.00
H2       0.56946    0.09356    0.77067   1.00
H2       0.62240    0.09172    0.79009   1.00
H2       0.56204    -0.04001   0.79715   1.00
H2       0.47790    -0.08643   0.78809   1.00
H2       0.54342    -0.02807   0.77222   1.00
H2       0.26725    -0.09598   0.82204   1.00
H2       0.28557    -0.02985   0.80504   1.00
H2       0.27474    -0.10832   0.79598   1.00
H2       0.42944    -0.09642   0.82110   1.00
H2       0.34342    -0.14015   0.82798   1.00
H2       0.36587    -0.14227   0.80248   1.00
H2       0.37049    -0.10498   0.76474   1.00
H2       0.37721    -0.06320   0.74150   1.00
H2       0.45093    -0.04882   0.75373   1.00
H2       0.28996    -0.05243   0.76484   1.00
H2       0.32147    0.03132    0.77317   1.00
H2       0.33302    0.01604    0.74791   1.00
H2       0.45105    0.24957    0.81741   1.00
H2       0.50372    0.31741    0.83351   1.00
H2       0.51967    0.24981    0.83015   1.00
H2       0.39465    0.29850    0.84886   1.00
H2       0.34108    0.22254    0.83592   1.00
H2       0.34049    0.22520    0.86268   1.00
H2       0.27456    0.01110    0.88935   1.00
H2       0.30121    -0.00114   0.86549   1.00
H2       0.35525    0.01765    0.88679   1.00
H2       0.39318    0.19908    0.89433   1.00
H2       0.32796    0.12553    0.90595   1.00
H2       0.40991    0.13524    0.90346   1.00
H2       0.54266    0.16102    0.83441   1.00
H2       0.56478    0.11768    0.85251   1.00
H2       0.48812    0.07363    0.83906   1.00
H2       0.57684    0.18836    0.88177   1.00
H2       0.56739    0.24489    0.86545   1.00
H2       0.51764    0.21407    0.88774   1.00
C4       0.82951    0.18592    0.78310   1.00
C4       0.85618    0.15753    0.79732   1.00
C3       0.78192    0.14728    0.76769   1.00
C3       0.84278    0.08925    0.79639   1.00
C3       0.85211    0.25708    0.78401   1.00
C3       0.89856    0.19914    0.81346   1.00
C2       0.78058    0.24777    0.75430   1.00
C2       0.91330    0.10437    0.82638   1.00
C3       0.75840    0.17738    0.75361   1.00
C3       0.87002    0.06318    0.81063   1.00
C3       0.82679    0.28623    0.76990   1.00
C3       0.92784    0.17275    0.82713   1.00
H1       0.76278    0.09610    0.76629   1.00
H1       0.81320    0.05658    0.78528   1.00
C5       0.89962    0.29861    0.79905   1.00
C5       0.91203    0.26698    0.81580   1.00
H1       0.72438    0.14698    0.74271   1.00
H1       0.85811    0.01324    0.80931   1.00
H1       0.84201    0.33697    0.77109   1.00
H1       0.96153    0.20446    0.83781   1.00
O3       0.92980    0.36853    0.79782   1.00
O3       0.94119    0.30336    0.83336   1.00
Si1      1.00339    0.41259    0.78650   1.00
Si1      0.89202    0.29387    0.85264   1.00
C6       1.00635    0.49198    0.78685   1.00
C6       1.06585    0.41317    0.80259   1.00
C6       1.00368    0.38534    0.76142   1.00
C6       0.80381    0.23500    0.85041   1.00
C6       0.92656    0.26784    0.87220   1.00
C6       0.90523    0.37526    0.85887   1.00
C6       0.93985    0.49113    0.77975   1.00
H2       1.01066    0.50356    0.80304   1.00
C6       1.06658    0.55653    0.77654   1.00
H2       1.04176    0.40515    0.81745   1.00
C6       1.08382    0.35522    0.80013   1.00
C6       1.13618    0.48050    0.80456   1.00
H2       0.95715    0.38139    0.75516   1.00
C6       1.06316    0.43563    0.74721   1.00
C6       0.99878    0.31447    0.75767   1.00
C6       0.76389    0.24488    0.83262   1.00
C6       0.77781    0.15666    0.85153   1.00
H2       0.78338    0.24477    0.86420   1.00
H2       0.91370    0.21630    0.86781   1.00
C6       1.00612    0.30853    0.87424   1.00
C6       0.89725    0.26232    0.89403   1.00
H2       0.95205    0.39831    0.86783   1.00
C6       0.92028    0.42529    0.84082   1.00
C6       0.85039    0.37952    0.87228   1.00
H2       0.89547    0.45460    0.78846   1.00
H2       0.92949    0.47764    0.76371   1.00
H2       0.94404    0.54097    0.78189   1.00
H2       1.07749    0.60243    0.78500   1.00
H2       1.11348    0.55449    0.77588   1.00
H2       1.05435    0.56402    0.76107   1.00
H2       1.11140    0.35279    0.81343   1.00
H2       1.03845    0.30518    0.79874   1.00
H2       1.11622    0.36404    0.78691   1.00
H2       1.12980    0.52318    0.80926   1.00
H2       1.16823    0.47572    0.81611   1.00
H2       1.16424    0.49334    0.79025   1.00
H2       1.11279    0.45174    0.75410   1.00
H2       1.06186    0.41268    0.73248   1.00
H2       1.05932    0.48049    0.74373   1.00
H2       1.04879    0.31831    0.75783   1.00
H2       0.96756    0.27601    0.76872   1.00
H2       0.97619    0.29451    0.74280   1.00
H2       0.76897    0.22262    0.81854   1.00
H2       0.70944    0.21978    0.83612   1.00
H2       0.78081    0.29840    0.82986   1.00
H2       0.72221    0.12764    0.85281   1.00
H2       0.79121    0.13809    0.83808   1.00
H2       0.79754    0.14331    0.86478   1.00
H2       1.02328    0.28171    0.88431   1.00
H2       1.03090    0.31365    0.85960   1.00
H2       1.02462    0.35951    0.88041   1.00
H2       0.84165    0.23277    0.89418   1.00
H2       0.91525    0.23640    0.90418   1.00
H2       0.91346    0.31262    0.90045   1.00
H2       0.87775    0.40651    0.83020   1.00
H2       0.93179    0.47571    0.84606   1.00
H2       0.96464    0.43206    0.83251   1.00
H2       0.86923    0.43166    0.87763   1.00
H2       0.80343    0.36406    0.86379   1.00
H2       0.83772    0.34744    0.88573   1.00
C4       -0.02228   0.47201    0.38370   1.00
C4       0.03144    0.50110    0.36905   1.00
C3       -0.06625   0.40073    0.38618   1.00
C3       0.04259    0.46220    0.35423   1.00
C3       -0.03382   0.51619    0.39645   1.00
C3       0.07703    0.57303    0.36910   1.00
C2       -0.13190   0.41726    0.41298   1.00
C2       0.14030    0.56392    0.33966   1.00
C3       -0.11979   0.37407    0.40033   1.00
C3       0.09589    0.49263    0.34006   1.00
C3       -0.08731   0.48826    0.41090   1.00
C3       0.12860    0.60301    0.35414   1.00
H1       -0.06051   0.36609    0.37783   1.00
H1       0.01206    0.41067    0.35321   1.00
C5       0.00832    0.58796    0.39476   1.00
C5       0.07064    0.61479    0.38394   1.00
H1       -0.15026   0.32210    0.40135   1.00
H1       0.10186    0.46189    0.32980   1.00
H1       -0.09379   0.52052    0.42033   1.00
H1       0.15804    0.65495    0.35357   1.00
O3       -0.00977   0.63030    0.40458   1.00
O3       0.12160    0.68161    0.38680   1.00
Si1      -0.05420   0.65818    0.39263   1.00
Si1      0.18561    0.69713    0.40157   1.00
C6       -0.06994   0.69637    0.41372   1.00
C6       0.00062    0.72006    0.37505   1.00
C6       -0.13096   0.59226    0.38231   1.00
C6       0.18811    0.62714    0.41251   1.00
C6       0.25665    0.74214    0.38569   1.00
C6       0.18911    0.75326    0.42065   1.00
C6       -0.09520   0.65185    0.43345   1.00
H2       -0.01894   0.73816    0.41732   1.00
C6       -0.11584   0.72993    0.41172   1.00
H2       0.05052    0.73771    0.38193   1.00
C6       0.00548    0.69625    0.35315   1.00
C6       -0.00514   0.78555    0.37199   1.00
H2       -0.15218   0.55681    0.39504   1.00
C6       -0.18669   0.61065    0.37617   1.00
C6       -0.12829   0.54984    0.36381   1.00
C6       0.12617    0.57621    0.42578   1.00
C6       0.20776    0.58255    0.39905   1.00
H2       0.23080    0.65219    0.42306   1.00
H2       0.25284    0.70370    0.37497   1.00
C6       0.25714    0.79968    0.37239   1.00
C6       0.32884    0.77357    0.39564   1.00
H2       0.21513    0.80330    0.41340   1.00
C6       0.11941    0.74397    0.42787   1.00
C6       0.23068    0.76002    0.44035   1.00
H2       -0.06006   0.63453    0.43810   1.00
H2       -0.14546   0.60689    0.43122   1.00
H2       -0.09868   0.68094    0.44617   1.00
H2       -0.09744   0.77368    0.42193   1.00
H2       -0.11613   0.74800    0.39647   1.00
H2       -0.16878   0.69492    0.41594   1.00
H2       0.05066    0.73560    0.34531   1.00
H2       0.01018    0.65072    0.35329   1.00
H2       -0.03895   0.68609    0.34408   1.00
H2       0.00103    0.81226    0.38629   1.00
H2       0.03495    0.82204    0.36192   1.00
H2       -0.05414   0.77299    0.36527   1.00
H2       -0.16590   0.65433    0.36590   1.00
H2       -0.23032   0.56813    0.36864   1.00
H2       -0.20785   0.62196    0.38941   1.00
H2       -0.12705   0.57369    0.34931   1.00
H2       -0.08465   0.54237    0.36408   1.00
H2       -0.17373   0.49909    0.36373   1.00
H2       0.08472    0.53817    0.41653   1.00
H2       0.14138    0.54856    0.43617   1.00
H2       0.10614    0.60203    0.43503   1.00
H2       0.21645    0.54786    0.40848   1.00
H2       0.16783    0.55115    0.38829   1.00
H2       0.25486    0.61341    0.39063   1.00
H2       0.29660    0.81649    0.36070   1.00
H2       0.20860    0.78149    0.36451   1.00
H2       0.26714    0.84415    0.38140   1.00
H2       0.33391    0.73623    0.40480   1.00
H2       0.36836    0.79132    0.38394   1.00
H2       0.33972    0.81727    0.40520   1.00
H2       0.08713    0.69419    0.43478   1.00
H2       0.12625    0.78315    0.43880   1.00
H2       0.09200    0.74861    0.41503   1.00
H2       0.23771    0.80339    0.44949   1.00
H2       0.20457    0.71437    0.44979   1.00
H2       0.28145    0.76866    0.43686   1.00
C4       0.49440    1.02261    0.38359   1.00
C4       0.46984    0.96884    0.36896   1.00
C3       0.47091    1.07004    0.38494   1.00
C3       0.42403    0.96093    0.35309   1.00
C3       0.54611    1.03052    0.39753   1.00
C3       0.49177    0.91980    0.37013   1.00
C2       0.54908    1.13198    0.41295   1.00
C2       0.42372    0.85962    0.33969   1.00
C3       0.49774    1.12346    0.39913   1.00
C3       0.40108    0.90747    0.33897   1.00
C3       0.57160    1.08398    0.41198   1.00
C3       0.47033    0.86804    0.35523   1.00
H1       0.43346    1.06703    0.37570   1.00
H1       0.40632    0.99402    0.35125   1.00
C5       0.57181    0.98481    0.39700   1.00
C5       0.53541    0.92293    0.38601   1.00
H1       0.47911    1.15652    0.39930   1.00
H1       0.36751    0.90395    0.32792   1.00
H1       0.60731    1.08787    0.42225   1.00
H1       0.48990    0.83598    0.35551   1.00
O3       0.62911    0.99915    0.40805   1.00
O3       0.54632    0.86909    0.38980   1.00
Si1      0.70419    1.03990    0.39740   1.00
Si1      0.49208    0.80638    0.40404   1.00
C6       0.75277    1.05227    0.41956   1.00
C6       0.71056    0.98271    0.38062   1.00
C6       0.72231    1.11849    0.38654   1.00
C6       0.42010    0.80901    0.41324   1.00
C6       0.46516    0.73480    0.38833   1.00
C6       0.53842    0.79895    0.42437   1.00
C6       0.73210    1.07976    0.43851   1.00
H2       0.73947    1.00019    0.42348   1.00
C6       0.83279    1.09400    0.41898   1.00
H2       0.67454    0.93343    0.38724   1.00
C6       0.68716    0.97976    0.35813   1.00
C6       0.77996    0.98353    0.37921   1.00
H2       0.70760    1.14145    0.39868   1.00
C6       0.79877    1.17079    0.38161   1.00
C6       0.68264    1.11900    0.36704   1.00
C6       0.43249    0.87226    0.42608   1.00
C6       0.35978    0.79333    0.39848   1.00
H2       0.39790    0.76613    0.42380   1.00
H2       0.43440    0.74125    0.37676   1.00
C6       0.52258    0.73019    0.37644   1.00
C6       0.41874    0.66309    0.39805   1.00
H2       0.56105    0.77031    0.41800   1.00
C6       0.60002    0.86667    0.43229   1.00
C6       0.49796    0.75846    0.44364   1.00
H2       0.67825    1.04720    0.44226   1.00
H2       0.74132    1.13135    0.43588   1.00
H2       0.76102    1.08100    0.45194   1.00
H2       0.85368    1.07315    0.42998   1.00
H2       0.85355    1.09299    0.40421   1.00
H2       0.85300    1.14746    0.42307   1.00
H2       0.67986    0.93347    0.35065   1.00
H2       0.63859    0.97853    0.35711   1.00
H2       0.72514    1.02324    0.34943   1.00
H2       0.79630    0.97566    0.39404   1.00
H2       0.77564    0.94235    0.36951   1.00
H2       0.81989    1.03158    0.37286   1.00
H2       0.82131    1.14765    0.37214   1.00
H2       0.80457    1.21583    0.37366   1.00
H2       0.82877    1.19032    0.39537   1.00
H2       0.70721    1.11610    0.35313   1.00
H2       0.63034    1.07755    0.36654   1.00
H2       0.68088    1.16637    0.36635   1.00
H2       0.44068    0.91488    0.41649   1.00
H2       0.38812    0.85961    0.43558   1.00
H2       0.47606    0.88966    0.43620   1.00
H2       0.31559    0.78746    0.40694   1.00
H2       0.37308    0.83401    0.38753   1.00
H2       0.34246    0.74579    0.39019   1.00
H2       0.50035    0.69103    0.36465   1.00
H2       0.55686    0.77821    0.36880   1.00
H2       0.55309    0.71736    0.38636   1.00
H2       0.37578    0.66089    0.40622   1.00
H2       0.39733    0.62379    0.38628   1.00
H2       0.44746    0.64946    0.40849   1.00
H2       0.58417    0.90130    0.43842   1.00
H2       0.62832    0.85726    0.44404   1.00
H2       0.63540    0.89271    0.41996   1.00
H2       0.53044    0.74856    0.45370   1.00
H2       0.47919    0.78686    0.45231   1.00
H2       0.45453    0.70900    0.43968   1.00
C4       0.52821    0.50560    0.38359   1.00
C4       0.49901    0.53017    0.36896   1.00
C3       0.59915    0.52922    0.38498   1.00
C3       0.53695    0.57612    0.35313   1.00
C3       0.48439    0.45376    0.39749   1.00
C3       0.42799    0.50809    0.37009   1.00
C2       0.58291    0.45091    0.41295   1.00
C2       0.43591    0.57629    0.33969   1.00
C3       0.62575    0.50240    0.39917   1.00
C3       0.50644    0.59906    0.33900   1.00
C3       0.51236    0.42827    0.41195   1.00
C3       0.39768    0.52953    0.35519   1.00
H1       0.63360    0.56678    0.37577   1.00
H1       0.58777    0.59394    0.35131   1.00
C5       0.41296    0.42792    0.39693   1.00
C5       0.38744    0.46429    0.38595   1.00
H1       0.67744    0.52112    0.39937   1.00
H1       0.53651    0.63274    0.32798   1.00
H1       0.48052    0.39245    0.42219   1.00
H1       0.34604    0.50986    0.35545   1.00
O3       0.37002    0.37051    0.40794   1.00
O3       0.32261    0.45322    0.38970   1.00
Si1      0.33589    0.29551    0.39724   1.00
Si1      0.31390    0.50727    0.40396   1.00
C6       0.29960    0.24675    0.41937   1.00
C6       0.27239    0.28912    0.38044   1.00
C6       0.39655    0.27763    0.38640   1.00
C6       0.38837    0.57928    0.41323   1.00
C6       0.26924    0.53417    0.38825   1.00
C6       0.26005    0.46072    0.42426   1.00
C6       0.34765    0.26738    0.43835   1.00
H2       0.26073    0.25992    0.42328   1.00
C6       0.26147    0.16674    0.41875   1.00
H2       0.25897    0.32502    0.38707   1.00
C6       0.29296    0.31269    0.35797   1.00
C6       0.20390    0.21965    0.37897   1.00
H2       0.43415    0.29233    0.39856   1.00
C6       0.37257    0.20124    0.38143   1.00
C6       0.43681    0.31749    0.36693   1.00
C6       0.43924    0.56695    0.42608   1.00
C6       0.43303    0.63974    0.39850   1.00
H2       0.36755    0.60134    0.42378   1.00
H2       0.30650    0.56506    0.37671   1.00
C6       0.20735    0.47675    0.37631   1.00
C6       0.24374    0.58041    0.39798   1.00
H2       0.20882    0.43804    0.41785   1.00
C6       0.26628    0.39916    0.43215   1.00
C6       0.25981    0.50101    0.44354   1.00
H2       0.36882    0.32120    0.44213   1.00
H2       0.39011    0.25829    0.43573   1.00
H2       0.31992    0.23834    0.45176   1.00
H2       0.21965    0.14570    0.42972   1.00
H2       0.23982    0.14606    0.40396   1.00
H2       0.29477    0.14661    0.42283   1.00
H2       0.25395    0.31994    0.35047   1.00
H2       0.34023    0.36132    0.35698   1.00
H2       0.29860    0.27483    0.34925   1.00
H2       0.17960    0.20317    0.39379   1.00
H2       0.16704    0.22394    0.36926   1.00
H2       0.21216    0.17982    0.37261   1.00
H2       0.32695    0.17868    0.37193   1.00
H2       0.41192    0.19560    0.37349   1.00
H2       0.36207    0.17115    0.39517   1.00
H2       0.40945    0.29297    0.35300   1.00
H2       0.44755    0.36975    0.36646   1.00
H2       0.48600    0.31937    0.36626   1.00
H2       0.47379    0.55891    0.41650   1.00
H2       0.47083    0.61127    0.43561   1.00
H2       0.41308    0.52329    0.43616   1.00
H2       0.47123    0.68391    0.40699   1.00
H2       0.46054    0.62659    0.38756   1.00
H2       0.40279    0.65702    0.39021   1.00
H2       0.19042    0.49899    0.36453   1.00
H2       0.22123    0.44259    0.36866   1.00
H2       0.16397    0.44611    0.38620   1.00
H2       0.28439    0.62335    0.40618   1.00
H2       0.22586    0.60183    0.38621   1.00
H2       0.20134    0.55155    0.40839   1.00
H2       0.31674    0.41507    0.43831   1.00
H2       0.22851    0.37073    0.44388   1.00
H2       0.25709    0.36388    0.41980   1.00
H2       0.21738    0.46839    0.45357   1.00
H2       0.30693    0.51981    0.45223   1.00
H2       0.25368    0.54440    0.43960   1.00
C4       0.18783    0.35290    0.21802   1.00
C4       0.15871    0.29917    0.20338   1.00
C3       0.15313    0.35460    0.23576   1.00
C3       0.09000    0.24510    0.20405   1.00
C3       0.25499    0.40884    0.21475   1.00
C3       0.20012    0.29878    0.18711   1.00
C2       0.24894    0.46505    0.24639   1.00
C2       0.10320    0.19323    0.17293   1.00
C3       0.18264    0.40929    0.24950   1.00
C3       0.06315    0.19323    0.18935   1.00
C3       0.28435    0.46291    0.22899   1.00
C3       0.17127    0.24766    0.17199   1.00
H1       0.10548    0.31605    0.23925   1.00
H1       0.05731    0.24204    0.21515   1.00
C5       0.29248    0.41029    0.19733   1.00
C5       0.26987    0.34965    0.18590   1.00
H1       0.15492    0.40796    0.26198   1.00
H1       0.01327    0.15510    0.19070   1.00
H1       0.33328    0.50176    0.22673   1.00
H1       0.20034    0.25054    0.15976   1.00
O3       0.35210    0.46904    0.19248   1.00
O3       0.31384    0.34288    0.17282   1.00
Si1      0.35038    0.52390    0.17676   1.00
Si1      0.34952    0.29928    0.18022   1.00
C6       0.43591    0.58898    0.18005   1.00
C6       0.33670    0.48831    0.15225   1.00
C6       0.29319    0.55156    0.18416   1.00
C6       0.32776    0.26019    0.20437   1.00
C6       0.32477    0.23632    0.16143   1.00
C6       0.43841    0.35362    0.17842   1.00
C6       0.46116    0.60656    0.20255   1.00
H2       0.46399    0.56585    0.17359   1.00
C6       0.46448    0.65966    0.16910   1.00
H2       0.35639    0.45330    0.15376   1.00
C6       0.26160    0.44400    0.14458   1.00
C6       0.37650    0.53605    0.13403   1.00
H2       0.30577    0.56366    0.20018   1.00
C6       0.30231    0.61827    0.17406   1.00
C6       0.21423    0.50048    0.18313   1.00
C6       0.33953    0.30651    0.22327   1.00
C6       0.25670    0.19442    0.20755   1.00
H2       0.36384    0.24189    0.20612   1.00
H2       0.27030    0.20308    0.16407   1.00
C6       0.33088    0.26121    0.13896   1.00
C6       0.35745    0.18971    0.16215   1.00
H2       0.44947    0.35197    0.16238   1.00
C6       0.46571    0.43050    0.18306   1.00
C6       0.48561    0.33357    0.19036   1.00
H2       0.45338    0.56140    0.21081   1.00
H2       0.43425    0.62815    0.21066   1.00
H2       0.51576    0.64342    0.20322   1.00
H2       0.51824    0.68015    0.16528   1.00
H2       0.43763    0.65645    0.15511   1.00
H2       0.46204    0.69767    0.17871   1.00
H2       0.25936    0.41361    0.13140   1.00
H2       0.22857    0.40797    0.15602   1.00
H2       0.24033    0.47589    0.14003   1.00
H2       0.43147    0.56246    0.13658   1.00
H2       0.36753    0.50695    0.12000   1.00
H2       0.36065    0.57373    0.13140   1.00
H2       0.30210    0.61481    0.15754   1.00
H2       0.26188    0.62881    0.17847   1.00
H2       0.34945    0.66274    0.17889   1.00
H2       0.19312    0.50033    0.16824   1.00
H2       0.20018    0.44825    0.18650   1.00
H2       0.18776    0.51512    0.19417   1.00
H2       0.29732    0.31596    0.22557   1.00
H2       0.34368    0.28193    0.23705   1.00
H2       0.38633    0.35551    0.22207   1.00
H2       0.25475    0.17111    0.22225   1.00
H2       0.21496    0.20517    0.20732   1.00
H2       0.24650    0.15555    0.19616   1.00
H2       0.30382    0.21767    0.12874   1.00
H2       0.30791    0.29334    0.13701   1.00
H2       0.38383    0.29007    0.13395   1.00
H2       0.35369    0.16823    0.17723   1.00
H2       0.33102    0.14672    0.15170   1.00
H2       0.41109    0.21764    0.15770   1.00
H2       0.45533    0.43879    0.19863   1.00
H2       0.52060    0.46118    0.18045   1.00
H2       0.44146    0.45009    0.17304   1.00
H2       0.53875    0.36503    0.18561   1.00
H2       0.48341    0.34060    0.20669   1.00
H2       0.47168    0.28069    0.18764   1.00
C4       0.64013    0.83254    0.21568   1.00
C4       0.69519    0.85921    0.20146   1.00
C3       0.57782    0.83174    0.21228   1.00
C3       0.69592    0.89330    0.18330   1.00
C3       0.64763    0.80598    0.23453   1.00
C3       0.75299    0.85158    0.20542   1.00
C2       0.53255    0.78079    0.24561   1.00
C2       0.80917    0.91309    0.17371   1.00
C3       0.52564    0.80695    0.22687   1.00
C3       0.75103    0.91894    0.16971   1.00
C3       0.59388    0.78003    0.24890   1.00
C3       0.80924    0.88035    0.19196   1.00
H1       0.56842    0.84893    0.19908   1.00
H1       0.65663    0.90087    0.17947   1.00
C5       0.70863    0.80525    0.23888   1.00
C5       0.75471    0.81585    0.22286   1.00
H1       0.48190    0.80812    0.22363   1.00
H1       0.74849    0.94260    0.15672   1.00
H1       0.59924    0.75941    0.26212   1.00
H1       0.85202    0.87827    0.19566   1.00
O3       0.72027    0.79037    0.25823   1.00
O3       0.80318    0.79618    0.22493   1.00
Si1      0.76333    0.85209    0.27432   1.00
Si1      0.78891    0.72473    0.21460   1.00
C6       0.74912    0.80051    0.29590   1.00
C6       0.84958    0.89319    0.26682   1.00
C6       0.72916    0.90650    0.27764   1.00
C6       0.71311    0.67727    0.20046   1.00
C6       0.85968    0.75035    0.19864   1.00
C6       0.79365    0.67401    0.23408   1.00
C6       0.67355    0.74269    0.29950   1.00
H2       0.77687    0.77410    0.29205   1.00
C6       0.77634    0.83307    0.31733   1.00
H2       0.85208    0.85282    0.25850   1.00
C6       0.87586    0.95468    0.25178   1.00
C6       0.90578    0.91687    0.28361   1.00
H2       0.67493    0.87017    0.27980   1.00
C6       0.75251    0.95355    0.29685   1.00
C6       0.73411    0.95510    0.25989   1.00
C6       0.64359    0.65464    0.21129   1.00
C6       0.70720    0.70236    0.17880   1.00
H2       0.71347    0.63005    0.19744   1.00
H2       0.85161    0.77846    0.18655   1.00
C6       0.93084    0.80158    0.20798   1.00
C6       0.86784    0.69301    0.18807   1.00
H2       0.84826    0.69378    0.23599   1.00
C6       0.76791    0.68095    0.25539   1.00
C6       0.76136    0.59566    0.23011   1.00
H2       0.65284    0.70958    0.28626   1.00
H2       0.64062    0.76395    0.30283   1.00
H2       0.66998    0.70998    0.31219   1.00
H2       0.79036    0.80100    0.32614   1.00
H2       0.82106    0.88367    0.31650   1.00
H2       0.73786    0.83730    0.32618   1.00
H2       0.92455    0.96589    0.24506   1.00
H2       0.84087    0.94409    0.23919   1.00
H2       0.88387    1.00074    0.25951   1.00
H2       0.89773    0.87453    0.29335   1.00
H2       0.95649    0.93674    0.27694   1.00
H2       0.90693    0.95725    0.29295   1.00
H2       0.80805    0.98389    0.29772   1.00
H2       0.73258    0.98873    0.29691   1.00
H2       0.73322    0.92393    0.31069   1.00
H2       0.78186    1.00372    0.26028   1.00
H2       0.73033    0.93354    0.24495   1.00
H2       0.69268    0.96654    0.26108   1.00
H2       0.63070    0.69499    0.21119   1.00
H2       0.60218    0.61077    0.20354   1.00
H2       0.64358    0.63947    0.22696   1.00
H2       0.66196    0.66311    0.17095   1.00
H2       0.70255    0.74787    0.17935   1.00
H2       0.75065    0.71299    0.16921   1.00
H2       0.96967    0.82326    0.19609   1.00
H2       0.93001    0.84432    0.21540   1.00
H2       0.94737    0.77711    0.21908   1.00
H2       0.82089    0.65573    0.18056   1.00
H2       0.90740    0.71484    0.17638   1.00
H2       0.88270    0.66630    0.19890   1.00
H2       0.71382    0.66503    0.25531   1.00
H2       0.77630    0.65098    0.26682   1.00
H2       0.79588    0.73375    0.26030   1.00
H2       0.77662    0.57192    0.24189   1.00
H2       0.70569    0.56991    0.23008   1.00
H2       0.77797    0.58545    0.21568   1.00
C4       0.16640    0.80668    0.21571   1.00
C4       0.13986    0.83530    0.20153   1.00
C3       0.15558    0.73943    0.21417   1.00
C3       0.09481    0.79762    0.18549   1.00
C3       0.20515    0.84671    0.23261   1.00
C3       0.15918    0.90552    0.20329   1.00
C2       0.21894    0.75136    0.24556   1.00
C2       0.08718    0.89650    0.17376   1.00
C3       0.18077    0.71236    0.22873   1.00
C3       0.06967    0.82750    0.17187   1.00
C3       0.23121    0.81890    0.24693   1.00
C3       0.13099    0.93388    0.18994   1.00
H1       0.12927    0.70823    0.20238   1.00
H1       0.07858    0.74726    0.18331   1.00
C5       0.21786    0.91435    0.23505   1.00
C5       0.20600    0.94695    0.21845   1.00
H1       0.17091    0.66323    0.22690   1.00
H1       0.03772    0.79793    0.16045   1.00
H1       0.26051    0.84886    0.25867   1.00
H1       0.14188    0.98299    0.19221   1.00
O3       0.24515    0.94859    0.25296   1.00
O3       0.23563    1.01714    0.21796   1.00
Si1      0.19470    0.94647    0.27100   1.00
Si1      0.30386    1.06118    0.20421   1.00
C6       0.25785    0.98691    0.28984   1.00
C6       0.16124    0.99845    0.26332   1.00
C6       0.13327    0.86289    0.27833   1.00
C6       0.33494    1.01650    0.18986   1.00
C6       0.28009    1.10674    0.18778   1.00
C6       0.36808    1.12014    0.22046   1.00
C6       0.30879    0.95955    0.29242   1.00
H2       0.28834    1.03840    0.28374   1.00
C6       0.23841    0.99631    0.31199   1.00
H2       0.20024    1.03351    0.25279   1.00
C6       0.09280    0.96492    0.25113   1.00
C6       0.15354    1.04465    0.27954   1.00
H2       0.16414    0.83846    0.28004   1.00
C6       0.09676    0.85425    0.29921   1.00
C6       0.07371    0.81693    0.26337   1.00
C6       0.35318    0.96733    0.20136   1.00
C6       0.29660    0.97824    0.17007   1.00
H2       0.38350    1.05772    0.18424   1.00
H2       0.24298    1.06769    0.17766   1.00
C6       0.24188    1.14100    0.19774   1.00
C6       0.33685    1.16200    0.17392   1.00
H2       0.35683    1.16156    0.22183   1.00
C6       0.36725    1.09589    0.24264   1.00
C6       0.44391    1.15393    0.21314   1.00
H2       0.33392    0.96119    0.27812   1.00
H2       0.28266    0.90691    0.29786   1.00
H2       0.34920    0.99056    0.30322   1.00
H2       0.27902    1.04379    0.31848   1.00
H2       0.19157    0.99844    0.31266   1.00
H2       0.23221    0.95540    0.32211   1.00
H2       0.08537    1.00388    0.24368   1.00
H2       0.09212    0.93150    0.23916   1.00
H2       0.04915    0.93572    0.26109   1.00
H2       0.20196    1.07817    0.28703   1.00
H2       0.13728    1.07805    0.27256   1.00
H2       0.11561    1.01392    0.29098   1.00
H2       0.07396    0.88676    0.30011   1.00
H2       0.05634    0.80159    0.30183   1.00
H2       0.13196    0.86623    0.31179   1.00
H2       0.03005    0.82460    0.26505   1.00
H2       0.08848    0.82556    0.24754   1.00
H2       0.05557    0.76305    0.26642   1.00
H2       0.30834    0.91751    0.20389   1.00
H2       0.38916    0.95895    0.19250   1.00
H2       0.37708    0.98779    0.21597   1.00
H2       0.32701    0.96158    0.16148   1.00
H2       0.24793    0.93286    0.17328   1.00
H2       0.28750    1.01084    0.15990   1.00
H2       0.21920    1.15780    0.18606   1.00
H2       0.20018    1.10520    0.20747   1.00
H2       0.27600    1.18539    0.20684   1.00
H2       0.36506    1.14192    0.16582   1.00
H2       0.31421    1.17954    0.16243   1.00
H2       0.37293    1.20650    0.18268   1.00
H2       0.37541    1.05238    0.24329   1.00
H2       0.40604    1.13665    0.25200   1.00
H2       0.31826    1.08072    0.24960   1.00
H2       0.47738    1.19661    0.22298   1.00
H2       0.46226    1.11755    0.21333   1.00
H2       0.45018    1.17440    0.19783   1.00
C4       1.01983    0.52031    0.61540   1.00
C4       0.96619    0.49145    0.63007   1.00
C3       1.02880    0.48167    0.59999   1.00
C3       0.92002    0.42037    0.63196   1.00
C3       1.06813    0.59156    0.61621   1.00
C3       0.95756    0.53561    0.64367   1.00
C2       1.13161    0.58184    0.58691   1.00
C2       0.85999    0.43698    0.66045   1.00
C3       1.08335    0.51146    0.58621   1.00
C3       0.86797    0.39389    0.64660   1.00
C3       1.12206    0.62088    0.60193   1.00
C3       0.90664    0.50769    0.65888   1.00
H1       0.99583    0.43079    0.59829   1.00
H1       0.92310    0.38570    0.62284   1.00
C5       1.06208    0.63310    0.63124   1.00
C5       1.00008    0.60729    0.64218   1.00
H1       1.08752    0.48088    0.57549   1.00
H1       0.83572    0.34209    0.64715   1.00
H1       1.15521    0.67238    0.60236   1.00
H1       0.90393    0.53964    0.66932   1.00
O3       1.11460    0.69890    0.63413   1.00
O3       0.98435    0.65109    0.65232   1.00
Si1      1.17290    0.71457    0.65120   1.00
Si1      0.93175    0.67142    0.64177   1.00
C6       1.22824    0.80077    0.64474   1.00
C6       1.13545    0.70725    0.67519   1.00
C6       1.21302    0.66545    0.64800   1.00
C6       0.89501    0.63391    0.61818   1.00
C6       0.86716    0.64668    0.66003   1.00
C6       0.97464    0.76098    0.63982   1.00
C6       1.24417    0.81600    0.62157   1.00
H2       1.19809    0.82444    0.64883   1.00
C6       1.29859    0.84398    0.65577   1.00
H2       1.09449    0.71766    0.67161   1.00
C6       1.10035    0.63610    0.68593   1.00
C6       1.17873    0.75962    0.69212   1.00
H2       1.22486    0.67143    0.63180   1.00
C6       1.28253    0.69030    0.65922   1.00
C6       1.17174    0.58659    0.65223   1.00
C6       0.94397    0.64406    0.60012   1.00
C6       0.83683    0.55745    0.61741   1.00
H2       0.86918    0.66179    0.61386   1.00
H2       0.84104    0.59110    0.65970   1.00
C6       0.89145    0.66696    0.68249   1.00
C6       0.81142    0.66688    0.65615   1.00
H2       0.96993    0.77788    0.65494   1.00
C6       1.05286    0.79704    0.63575   1.00
C6       0.94565    0.79372    0.62476   1.00
H2       1.19750    0.79709    0.61265   1.00
H2       1.27258    0.79231    0.61572   1.00
H2       1.27438    0.87083    0.61872   1.00
H2       1.31106    0.89716    0.65695   1.00
H2       1.29891    0.82601    0.67103   1.00
H2       1.34048    0.84430    0.64747   1.00
H2       1.06724    0.63467    0.69823   1.00
H2       1.06806    0.59499    0.67561   1.00
H2       1.13804    0.62511    0.69252   1.00
H2       1.19776    0.81201    0.68711   1.00
H2       1.14811    0.75283    0.70568   1.00
H2       1.22183    0.75361    0.69666   1.00
H2       1.27781    0.69709    0.67542   1.00
H2       1.30115    0.65432    0.65752   1.00
H2       1.32247    0.73798    0.65292   1.00
H2       1.17430    0.57469    0.66814   1.00
H2       1.11823    0.56309    0.64832   1.00
H2       1.19276    0.56069    0.64330   1.00
H2       0.96159    0.60727    0.60058   1.00
H2       0.91769    0.63694    0.58564   1.00
H2       0.98846    0.69503    0.59990   1.00
H2       0.81303    0.54472    0.60241   1.00
H2       0.85561    0.52248    0.62037   1.00
H2       0.79608    0.54659    0.62819   1.00
H2       0.84868    0.63975    0.69295   1.00
H2       0.92986    0.65332    0.68661   1.00
H2       0.91297    0.72149    0.68512   1.00
H2       0.78993    0.65270    0.64093   1.00
H2       0.76912    0.64043    0.66683   1.00
H2       0.83186    0.72159    0.65816   1.00
H2       1.06455    0.78216    0.62123   1.00
H2       1.07616    0.85250    0.63595   1.00
H2       1.07750    0.78369    0.64756   1.00
H2       0.96996    0.84877    0.62720   1.00
H2       0.95462    0.78554    0.60899   1.00
H2       0.89104    0.77302    0.62683   1.00
C4       0.50093    -0.01970   0.61536   1.00
C4       0.52564    0.03398    0.63002   1.00
C3       0.45774    -0.02553   0.59894   1.00
C3       0.50472    0.08351    0.63081   1.00
C3       0.51926    -0.07130   0.61724   1.00
C3       0.57414    0.03908    0.64477   1.00
C2       0.45037    -0.13164   0.58693   1.00
C2       0.57683    0.14004    0.66043   1.00
C3       0.43282    -0.08014   0.58518   1.00
C3       0.53007    0.13548    0.64548   1.00
C3       0.49461    -0.12528   0.60298   1.00
C3       0.59682    0.09007    0.65994   1.00
H1       0.44331    0.00985    0.59646   1.00
H1       0.47014    0.08305    0.62084   1.00
C5       0.56231    -0.06848   0.63330   1.00
C5       0.59932    -0.00699   0.64443   1.00
H1       0.40136    -0.08194   0.57369   1.00
H1       0.51357    0.17024    0.64521   1.00
H1       0.50971    -0.16088   0.60419   1.00
H1       0.62815    0.09037    0.67116   1.00
O3       0.57061    -0.12375   0.63707   1.00
O3       0.65552    0.00499    0.65580   1.00
Si1      0.52194    -0.18098   0.65369   1.00
Si1      0.73151    0.05413    0.64648   1.00
C6       0.54883    -0.24043   0.64858   1.00
C6       0.54869    -0.14444   0.67795   1.00
C6       0.43403    -0.21603   0.64878   1.00
C6       0.73827    0.09219    0.62254   1.00
C6       0.77074    0.11803    0.66496   1.00
C6       0.77356    0.00642    0.64611   1.00
C6       0.55173    -0.25683   0.62561   1.00
H2       0.60184    -0.21313   0.65363   1.00
C6       0.51539    -0.31122   0.65968   1.00
H2       0.60172    -0.10578   0.67518   1.00
C6       0.51447    -0.10556   0.68742   1.00
C6       0.55078    -0.18987   0.69551   1.00
H2       0.43086    -0.22784   0.63260   1.00
C6       0.38381    -0.28470   0.65964   1.00
C6       0.40013    -0.17064   0.65166   1.00
C6       0.70115    0.04437    0.60411   1.00
C6       0.72516    0.15368    0.62071   1.00
H2       0.79258    0.11503    0.61924   1.00
H2       0.74445    0.14717    0.66364   1.00
C6       0.76052    0.09319    0.68752   1.00
C6       0.84848    0.17021    0.66232   1.00
H2       0.79154    0.00972    0.66166   1.00
C6       0.72820    -0.07143   0.64186   1.00
C6       0.83799    0.03196    0.63226   1.00
H2       0.58361    -0.21056   0.61689   1.00
H2       0.50086    -0.28244   0.61883   1.00
H2       0.57373    -0.28984   0.62368   1.00
H2       0.55330    -0.32705   0.66197   1.00
H2       0.49469    -0.31025   0.67447   1.00
H2       0.47413    -0.35154   0.65084   1.00
H2       0.54477    -0.07361   0.70010   1.00
H2       0.51047    -0.07153   0.67657   1.00
H2       0.46366    -0.14103   0.69322   1.00
H2       0.58243    -0.21194   0.69152   1.00
H2       0.57312    -0.15993   0.70929   1.00
H2       0.49958    -0.23089   0.69932   1.00
H2       0.39189    -0.28066   0.67603   1.00
H2       0.33039    -0.30002   0.65683   1.00
H2       0.38960    -0.32656   0.65396   1.00
H2       0.38281    -0.17226   0.66721   1.00
H2       0.43364    -0.11747   0.64791   1.00
H2       0.35539    -0.18899   0.64184   1.00
H2       0.64756    0.03007    0.60344   1.00
H2       0.72442    0.07018    0.58984   1.00
H2       0.70416    -0.00210   0.60452   1.00
H2       0.74058    0.17750    0.60575   1.00
H2       0.67159    0.13812    0.62257   1.00
H2       0.75460    0.19365    0.63174   1.00
H2       0.77644    0.13628    0.69788   1.00
H2       0.70692    0.05722    0.69080   1.00
H2       0.79008    0.06855    0.69117   1.00
H2       0.86017    0.19191    0.64709   1.00
H2       0.86460    0.21280    0.67290   1.00
H2       0.87945    0.14660    0.66537   1.00
H2       0.70482    -0.08159   0.62687   1.00
H2       0.75732    -0.09785   0.64308   1.00
H2       0.68753    -0.09418   0.65300   1.00
H2       0.86521    0.00460    0.63569   1.00
H2       0.82410    0.02393    0.61621   1.00
H2       0.87409    0.08599    0.63456   1.00
C4       0.47937    0.49908    0.61536   1.00
C4       0.50833    0.47437    0.63002   1.00
C3       0.51678    0.54242    0.59897   1.00
C3       0.57882    0.49543    0.63085   1.00
C3       0.40940    0.48060    0.61721   1.00
C3       0.46491    0.42573    0.64473   1.00
C2       0.41798    0.54963    0.58693   1.00
C2       0.56320    0.42317    0.66043   1.00
C3       0.48708    0.56734    0.58521   1.00
C3       0.60543    0.47007    0.64551   1.00
C3       0.38005    0.50524    0.60294   1.00
C3       0.49320    0.40304    0.65991   1.00
H1       0.56663    0.55697    0.59652   1.00
H1       0.61296    0.53012    0.62091   1.00
C5       0.36912    0.43740    0.63324   1.00
C5       0.39364    0.40041    0.64435   1.00
H1       0.51678    0.59891    0.57375   1.00
H1       0.65672    0.48668    0.64527   1.00
H1       0.32932    0.49003    0.60413   1.00
H1       0.46214    0.37159    0.67110   1.00
O3       0.30546    0.42893    0.63698   1.00
O3       0.34941    0.34409    0.65569   1.00
Si1      0.29666    0.47740    0.65362   1.00
Si1      0.32278    0.26820    0.64632   1.00
C6       0.21033    0.45039    0.64846   1.00
C6       0.30637    0.45055    0.67787   1.00
C6       0.34941    0.56537    0.64876   1.00
C6       0.35429    0.26168    0.62239   1.00
C6       0.34745    0.22895    0.66480   1.00
C6       0.23302    0.22599    0.64591   1.00
C6       0.19115    0.44760    0.62549   1.00
H2       0.18467    0.39733    0.65348   1.00
C6       0.17277    0.48362    0.65956   1.00
H2       0.29213    0.39756    0.67507   1.00
C6       0.37941    0.48483    0.68738   1.00
C6       0.25868    0.44822    0.69541   1.00
H2       0.34086    0.56863    0.63258   1.00
C6       0.33075    0.61542    0.65963   1.00
C6       0.42869    0.59940    0.65168   1.00
C6       0.34362    0.29886    0.60397   1.00
C6       0.42896    0.27497    0.62060   1.00
H2       0.32293    0.20738    0.61906   1.00
H2       0.40289    0.25535    0.66351   1.00
C6       0.33264    0.23896    0.68736   1.00
C6       0.32206    0.15126    0.66212   1.00
H2       0.21826    0.20789    0.66144   1.00
C6       0.20040    0.27124    0.64167   1.00
C6       0.19432    0.16164    0.63202   1.00
H2       0.20570    0.41585    0.61676   1.00
H2       0.21636    0.49851    0.61874   1.00
H2       0.13615    0.42551    0.62353   1.00
H2       0.11905    0.44561    0.66181   1.00
H2       0.19432    0.50424    0.67436   1.00
H2       0.17368    0.52489    0.65074   1.00
H2       0.38105    0.45448    0.70005   1.00
H2       0.41755    0.48899    0.67654   1.00
H2       0.39462    0.53558    0.69321   1.00
H2       0.20500    0.41652    0.69139   1.00
H2       0.26625    0.42584    0.70918   1.00
H2       0.26872    0.49936    0.69924   1.00
H2       0.32662    0.60723    0.67602   1.00
H2       0.36878    0.66888    0.65686   1.00
H2       0.28310    0.60956    0.65394   1.00
H2       0.44427    0.61663    0.66724   1.00
H2       0.44848    0.56600    0.64793   1.00
H2       0.45507    0.64422    0.64190   1.00
H2       0.38283    0.35248    0.60335   1.00
H2       0.34631    0.27572    0.58970   1.00
H2       0.29408    0.29573    0.60437   1.00
H2       0.43750    0.25969    0.60564   1.00
H2       0.46688    0.32855    0.62249   1.00
H2       0.43949    0.24551    0.63162   1.00
H2       0.35982    0.22306    0.69772   1.00
H2       0.35014    0.29252    0.69067   1.00
H2       0.27843    0.20929    0.69098   1.00
H2       0.33221    0.13971    0.64688   1.00
H2       0.34853    0.13514    0.67270   1.00
H2       0.26747    0.12018    0.66513   1.00
H2       0.21368    0.29473    0.62669   1.00
H2       0.14487    0.24202    0.64285   1.00
H2       0.21817    0.31183    0.65283   1.00
H2       0.13972    0.13430    0.63541   1.00
H2       0.20026    0.17563    0.61598   1.00
H2       0.21233    0.12560    0.63431   1.00
C4       0.47730    -0.02597   0.11744   1.00
C4       0.50678    0.02929    0.13157   1.00
C3       0.50121    -0.07260   0.11456   1.00
C3       0.56681    0.04716    0.14288   1.00
C3       0.42139    -0.03499   0.10519   1.00
C3       0.47486    0.06921    0.13476   1.00
C2       0.41708    -0.13436   0.08783   1.00
C2       0.56410    0.14276    0.15953   1.00
C3       0.47223    -0.12507   0.10009   1.00
C3       0.59435    0.10192    0.15662   1.00
C3       0.39204    -0.08902   0.09094   1.00
C3       0.50506    0.12597    0.14803   1.00
H1       0.54025    -0.06995   0.12295   1.00
H1       0.59253    0.02120    0.14137   1.00
C5       0.39500    0.00983    0.10731   1.00
C5       0.41337    0.05277    0.12459   1.00
H1       0.49199    -0.15694   0.09858   1.00
H1       0.63752    0.11212    0.16450   1.00
H1       0.35076    -0.09602   0.08266   1.00
H1       0.48404    0.15664    0.14916   1.00
O3       0.34908    0.00817    0.09328   1.00
O3       0.37470    0.08163    0.13037   1.00
Si1      0.37632    0.05966    0.07382   1.00
Si1      0.32021    0.04685    0.14889   1.00
C6       0.29789    0.02418    0.06075   1.00
C6       0.40127    0.14220    0.08281   1.00
C6       0.43859    0.05318    0.05942   1.00
C6       0.31544    -0.02462   0.16131   1.00
C6       0.34598    0.11406    0.16628   1.00
C6       0.23950    0.02659    0.13942   1.00
C6       0.25774    -0.05550   0.05879   1.00
H2       0.26718    0.03635    0.07083   1.00
C6       0.29283    0.05146    0.03930   1.00
H2       0.37053    0.13118    0.09653   1.00
C6       0.47692    0.18884    0.08971   1.00
C6       0.38422    0.18930    0.06966   1.00
H2       0.41568    -0.00196   0.05763   1.00
C6       0.45275    0.08349    0.03743   1.00
C6       0.51162    0.07956    0.06861   1.00
C6       0.29947    -0.08846   0.14820   1.00
C6       0.37321    -0.01423   0.17644   1.00
H2       0.27100    -0.04116   0.17108   1.00
H2       0.39426    0.12150    0.17216   1.00
C6       0.36278    0.18465    0.15717   1.00
C6       0.29912    0.10159    0.18510   1.00
H2       0.23961    0.07482    0.14005   1.00
C6       0.22528    0.00424    0.11675   1.00
C6       0.17486    -0.02603   0.15151   1.00
H2       0.24878    -0.08013   0.07360   1.00
H2       0.28554    -0.07337   0.04944   1.00
H2       0.20764    -0.07362   0.05191   1.00
H2       0.24313    0.04788    0.03752   1.00
H2       0.33161    0.10438    0.03684   1.00
H2       0.29722    0.02162    0.02698   1.00
H2       0.48213    0.23160    0.09880   1.00
H2       0.49477    0.16160    0.09919   1.00
H2       0.51094    0.21007    0.07669   1.00
H2       0.32975    0.16495    0.06643   1.00
H2       0.39760    0.23680    0.07761   1.00
H2       0.41236    0.20282    0.05536   1.00
H2       0.46488    0.13662    0.03753   1.00
H2       0.49522    0.08147    0.03021   1.00
H2       0.40928    0.05432    0.02755   1.00
H2       0.54570    0.13372    0.06565   1.00
H2       0.51144    0.07248    0.08486   1.00
H2       0.53502    0.05213    0.06181   1.00
H2       0.34521    -0.08318   0.14103   1.00
H2       0.27845    -0.13418   0.15767   1.00
H2       0.26211    -0.09812   0.13639   1.00
H2       0.35833    -0.06110   0.18495   1.00
H2       0.42072    -0.00095   0.16873   1.00
H2       0.38352    0.02508    0.18769   1.00
H2       0.38911    0.22516    0.16838   1.00
H2       0.39667    0.19804    0.14406   1.00
H2       0.31689    0.18523    0.15244   1.00
H2       0.28633    0.05407    0.19284   1.00
H2       0.32509    0.14266    0.19618   1.00
H2       0.25184    0.10014    0.18079   1.00
H2       0.22640    -0.04263   0.11394   1.00
H2       0.17591    -0.00348   0.11176   1.00
H2       0.26373    0.04383    0.10719   1.00
H2       0.12920    -0.02631   0.14595   1.00
H2       0.16633    -0.07777   0.14997   1.00
H2       0.17909    -0.01357   0.16760   1.00
C4       1.02317    0.49468    0.11660   1.00
C4       0.96931    0.47020    0.13119   1.00
C3       1.07607    0.47834    0.11701   1.00
C3       0.96641    0.43214    0.14867   1.00
C3       1.02535    0.53886    0.10081   1.00
C3       0.91492    0.48404    0.12831   1.00
C2       1.13215    0.54899    0.08711   1.00
C2       0.85945    0.42381    0.16025   1.00
C3       1.12928    0.50502    0.10275   1.00
C3       0.91268    0.40903    0.16270   1.00
C3       1.07877    0.56422    0.08634   1.00
C3       0.86280    0.46279    0.14308   1.00
H1       1.07736    0.44639    0.12765   1.00
H1       1.00344    0.42046    0.15178   1.00
C5       0.97400    0.55718    0.09951   1.00
C5       0.91305    0.51949    0.11083   1.00
H1       1.16641    0.49181    0.10390   1.00
H1       0.91295    0.38122    0.17496   1.00
H1       1.07862    0.59433    0.07477   1.00
H1       0.82660    0.47686    0.14147   1.00
O3       0.98227    0.60832    0.08647   1.00
O3       0.85495    0.52162    0.10571   1.00
Si1      1.01609    0.68660    0.09472   1.00
Si1      0.79546    0.45872    0.09268   1.00
C6       1.02341    0.72565    0.07096   1.00
C6       0.95486    0.69109    0.11015   1.00
C6       1.09673    0.71685    0.10611   1.00
C6       0.80702    0.38920    0.08649   1.00
C6       0.72309    0.43020    0.10814   1.00
C6       0.78215    0.49385    0.07050   1.00
C6       1.05506    0.70347    0.05345   1.00
H2       0.97011    0.70552    0.06672   1.00
C6       1.05774    0.80520    0.06902   1.00
H2       0.90727    0.64934    0.10418   1.00
C6       0.95442    0.67667    0.13337   1.00
C6       0.94730    0.75600    0.10876   1.00
H2       1.12283    0.70195    0.09505   1.00
C6       1.14261    0.79589    0.10882   1.00
C6       1.10194    0.68675    0.12709   1.00
C6       0.87235    0.40418    0.07432   1.00
C6       0.79769    0.33636    0.10332   1.00
H2       0.76455    0.35971    0.07617   1.00
H2       0.73354    0.40642    0.12098   1.00
C6       0.71118    0.48690    0.11756   1.00
C6       0.65312    0.37497    0.09914   1.00
H2       0.74915    0.51343    0.07542   1.00
C6       0.84619    0.55667    0.06131   1.00
C6       0.74448    0.44477    0.05230   1.00
H2       1.02726    0.64823    0.05134   1.00
H2       1.10835    0.71932    0.05657   1.00
H2       1.05296    0.72587    0.03897   1.00
H2       1.03328    0.81824    0.05691   1.00
H2       1.05406    0.82933    0.08284   1.00
H2       1.11172    0.82919    0.06507   1.00
H2       0.90641    0.66669    0.14030   1.00
H2       0.95900    0.63185    0.13632   1.00
H2       0.99563    0.72024    0.14122   1.00
H2       0.93713    0.76514    0.09324   1.00
H2       0.90430    0.75018    0.11787   1.00
H2       0.99311    0.80115    0.11428   1.00
H2       1.11540    0.81713    0.11692   1.00
H2       1.18937    0.80956    0.11726   1.00
H2       1.15968    0.82146    0.09428   1.00
H2       1.09580    0.71389    0.13986   1.00
H2       1.06454    0.63330    0.12898   1.00
H2       1.15212    0.69124    0.12866   1.00
H2       0.91625    0.42033    0.08424   1.00
H2       0.86444    0.35826    0.06646   1.00
H2       0.88550    0.44330    0.06282   1.00
H2       0.79691    0.29179    0.09660   1.00
H2       0.83891    0.35746    0.11435   1.00
H2       0.74957    0.31721    0.11143   1.00
H2       0.67248    0.46543    0.12949   1.00
H2       0.75764    0.52723    0.12459   1.00
H2       0.69402    0.51021    0.10626   1.00
H2       0.65607    0.33210    0.09272   1.00
H2       0.61417    0.35424    0.11102   1.00
H2       0.63533    0.39636    0.08738   1.00
H2       0.88470    0.54420    0.05645   1.00
H2       0.83292    0.57775    0.04833   1.00
H2       0.86929    0.59689    0.07257   1.00
H2       0.73017    0.47024    0.04083   1.00
H2       0.77677    0.42796    0.04494   1.00
H2       0.69752    0.39972    0.05713   1.00
C4       0.50560    0.52820    0.11640   1.00
C4       0.53017    0.49901    0.13103   1.00
C3       0.52935    0.59916    0.11498   1.00
C3       0.57626    0.53698    0.14684   1.00
C3       0.45363    0.48436    0.10254   1.00
C3       0.50795    0.42796    0.12994   1.00
C2       0.45091    0.58290    0.08705   1.00
C2       0.57629    0.43592    0.16031   1.00
C3       0.50252    0.62577    0.10079   1.00
C3       0.59920    0.50647    0.16097   1.00
C3       0.42814    0.51234    0.08809   1.00
C3       0.52940    0.39765    0.14484   1.00
H1       0.56700    0.63363    0.12417   1.00
H1       0.59418    0.58783    0.14863   1.00
C5       0.42767    0.41291    0.10314   1.00
C5       0.46401    0.38735    0.11412   1.00
H1       0.52134    0.67747    0.10057   1.00
H1       0.63298    0.53657    0.17196   1.00
H1       0.39222    0.48047    0.07787   1.00
H1       0.50963    0.34599    0.14461   1.00
O3       0.37016    0.36999    0.09216   1.00
O3       0.45278    0.32246    0.11039   1.00
Si1      0.29523    0.33605    0.10290   1.00
Si1      0.50667    0.31353    0.09611   1.00
C6       0.24631    0.29970    0.08080   1.00
C6       0.28882    0.27260    0.11973   1.00
C6       0.27758    0.39688    0.11373   1.00
C6       0.57870    0.38786    0.08679   1.00
C6       0.53354    0.26886    0.11182   1.00
C6       0.45992    0.25960    0.07585   1.00
C6       0.26690    0.34763    0.06180   1.00
H2       0.25935    0.26073    0.07691   1.00
C6       0.16631    0.26170    0.08148   1.00
H2       0.32460    0.25905    0.11310   1.00
C6       0.31255    0.29328    0.14219   1.00
C6       0.21928    0.20419    0.12125   1.00
H2       0.29226    0.43442    0.10155   1.00
C6       0.20125    0.37309    0.11874   1.00
C6       0.31760    0.43723    0.13317   1.00
C6       0.56641    0.43874    0.07392   1.00
C6       0.63929    0.43252    0.10147   1.00
H2       0.60062    0.36691    0.07623   1.00
H2       0.56455    0.30616    0.12334   1.00
C6       0.47612    0.20710    0.12381   1.00
C6       0.57960    0.24317    0.10209   1.00
H2       0.43719    0.20840    0.08228   1.00
C6       0.39839    0.26592    0.06798   1.00
C6       0.50004    0.25914    0.05655   1.00
H2       0.32068    0.36868    0.05799   1.00
H2       0.25793    0.39018    0.06441   1.00
H2       0.23774    0.31986    0.04842   1.00
H2       0.14512    0.21981    0.07053   1.00
H2       0.14569    0.24017    0.09628   1.00
H2       0.14624    0.29506    0.07739   1.00
H2       0.31976    0.25425    0.14969   1.00
H2       0.36124    0.34050    0.14314   1.00
H2       0.27480    0.29907    0.15092   1.00
H2       0.20267    0.17982    0.10645   1.00
H2       0.22354    0.16735    0.13098   1.00
H2       0.17956    0.21259    0.12763   1.00
H2       0.17868    0.32752    0.12827   1.00
H2       0.19575    0.41254    0.12667   1.00
H2       0.17109    0.36255    0.10501   1.00
H2       0.29315    0.40998    0.14712   1.00
H2       0.36984    0.44787    0.13362   1.00
H2       0.31960    0.48647    0.13383   1.00
H2       0.55852    0.47340    0.08349   1.00
H2       0.61069    0.47020    0.06437   1.00
H2       0.52268    0.41258    0.06387   1.00
H2       0.68344    0.47062    0.09295   1.00
H2       0.62629    0.46016    0.11242   1.00
H2       0.65654    0.40226    0.10977   1.00
H2       0.49837    0.19018    0.13559   1.00
H2       0.44208    0.22112    0.13147   1.00
H2       0.44535    0.16368    0.11395   1.00
H2       0.62254    0.28371    0.09385   1.00
H2       0.60103    0.22529    0.11386   1.00
H2       0.55061    0.20071    0.09170   1.00
H2       0.41435    0.31636    0.06180   1.00
H2       0.36983    0.22810    0.05628   1.00
H2       0.36321    0.25687    0.08035   1.00
H2       0.46730    0.21668    0.04655   1.00
H2       0.51887    0.30622    0.04783   1.00
H2       0.54339    0.25294    0.06048   1.00
C4       0.64093    0.81118    0.71599   1.00
C4       0.69621    0.84054    0.70186   1.00
C3       0.59862    0.83931    0.72033   1.00
C3       0.71857    0.90413    0.69207   1.00
C3       0.62737    0.75087    0.72669   1.00
C3       0.73142    0.80477    0.69707   1.00
C2       0.53230    0.75063    0.74551   1.00
C2       0.80942    0.89723    0.67381   1.00
C3       0.54605    0.81013    0.73477   1.00
C3       0.77320    0.93142    0.67829   1.00
C3       0.57327    0.72150    0.74092   1.00
C3       0.78818    0.83453    0.68381   1.00
H1       0.60461    0.88169    0.71309   1.00
H1       0.69611    0.93269    0.69476   1.00
C5       0.66774    0.72014    0.72305   1.00
C5       0.71029    0.73983    0.70566   1.00
H1       0.51743    0.83302    0.73738   1.00
H1       0.78675    0.97732    0.67153   1.00
H1       0.56294    0.67719    0.74807   1.00
H1       0.81555    0.81035    0.68154   1.00
O3       0.66207    0.66911    0.73570   1.00
O3       0.73436    0.69865    0.69829   1.00
Si1      0.71351    0.68802    0.75504   1.00
Si1      0.69643    0.64979    0.67880   1.00
C6       0.67275    0.60642    0.76634   1.00
C6       0.79437    0.70902    0.74545   1.00
C6       0.71284    0.74957    0.77133   1.00
C6       0.62793    0.65414    0.66748   1.00
C6       0.76276    0.67508    0.66112   1.00
C6       0.66996    0.56540    0.68620   1.00
C6       0.59327    0.57116    0.76843   1.00
H2       0.68163    0.57604    0.75518   1.00
C6       0.69826    0.59341    0.78710   1.00
H2       0.78117    0.68154    0.73106   1.00
C6       0.84552    0.78522    0.74003   1.00
C6       0.83772    0.68395    0.75726   1.00
H2       0.65827    0.73012    0.77335   1.00
C6       0.74295    0.75611    0.79315   1.00
C6       0.74446    0.82538    0.76389   1.00
C6       0.56567    0.63980    0.68113   1.00
C6       0.64296    0.71700    0.65394   1.00
H2       0.60824    0.61192    0.65671   1.00
H2       0.77414    0.72602    0.65656   1.00
C6       0.83150    0.68412    0.66952   1.00
C6       0.74675    0.63227    0.64120   1.00
H2       0.71592    0.56151    0.68477   1.00
C6       0.64738    0.54688    0.70873   1.00
C6       0.61412    0.50593    0.67312   1.00
H2       0.56903    0.56772    0.75381   1.00
H2       0.57870    0.59920    0.77886   1.00
H2       0.57156    0.51901    0.77410   1.00
H2       0.69045    0.54170    0.78746   1.00
H2       0.75211    0.62845    0.78981   1.00
H2       0.67021    0.59746    0.80000   1.00
H2       0.88674    0.78921    0.73042   1.00
H2       0.82116    0.80849    0.73156   1.00
H2       0.86876    0.81541    0.75366   1.00
H2       0.80969    0.62873    0.75928   1.00
H2       0.88418    0.69573    0.74895   1.00
H2       0.85308    0.70838    0.77211   1.00
H2       0.79465    0.76412    0.79253   1.00
H2       0.74478    0.79854    0.80164   1.00
H2       0.71129    0.71104    0.80220   1.00
H2       0.79908    0.85531    0.76695   1.00
H2       0.73771    0.82989    0.74781   1.00
H2       0.72039    0.85033    0.77181   1.00
H2       0.57475    0.68500    0.68953   1.00
H2       0.52026    0.62433    0.67183   1.00
H2       0.55315    0.59890    0.69195   1.00
H2       0.59700    0.70775    0.64580   1.00
H2       0.65982    0.76320    0.66281   1.00
H2       0.68134    0.72712    0.64238   1.00
H2       0.87244    0.71075    0.65845   1.00
H2       0.84724    0.71482    0.68336   1.00
H2       0.82797    0.63526    0.67286   1.00
H2       0.70035    0.62506    0.63390   1.00
H2       0.78820    0.65845    0.63024   1.00
H2       0.74118    0.58225    0.64412   1.00
H2       0.60282    0.55140    0.71234   1.00
H2       0.63565    0.49506    0.71237   1.00
H2       0.68850    0.58095    0.71873   1.00
H2       0.60979    0.45718    0.67731   1.00
H2       0.56406    0.50117    0.67526   1.00
H2       0.62638    0.51329    0.65700   1.00
C4       0.17039    0.35622    0.71696   1.00
C4       0.14369    0.30119    0.70273   1.00
C3       0.21545    0.36334    0.73296   1.00
C3       0.15437    0.24465    0.70419   1.00
C3       0.15044    0.40672    0.71543   1.00
C3       0.10415    0.30222    0.68602   1.00
C2       0.21945    0.46715    0.74572   1.00
C2       0.08667    0.19113    0.67360   1.00
C3       0.23902    0.41703    0.74702   1.00
C3       0.12720    0.19143    0.68993   1.00
C3       0.17580    0.46119    0.72954   1.00
C3       0.07481    0.24667    0.67230   1.00
H1       0.23265    0.32985    0.73483   1.00
H1       0.18184    0.24024    0.71573   1.00
C5       0.10553    0.40262    0.69978   1.00
C5       0.09355    0.35826    0.68315   1.00
H1       0.27113    0.41927    0.75837   1.00
H1       0.13708    0.15214    0.69165   1.00
H1       0.16256    0.49807    0.72792   1.00
H1       0.04306    0.24609    0.66118   1.00
O3       0.07756    0.44443    0.70034   1.00
O3       0.06744    0.36689    0.66515   1.00
Si1      0.00302    0.41735    0.71081   1.00
Si1      0.11949    0.40535    0.64632   1.00
C6       0.00338    0.49544    0.70994   1.00
C6       -0.05873   0.35686    0.69426   1.00
C6       -0.00142   0.38921    0.73604   1.00
C6       0.20669    0.43159    0.64959   1.00
C6       0.08549    0.34504    0.62669   1.00
C6       0.11018    0.47547    0.63948   1.00
C6       0.07032    0.55964    0.71754   1.00
H2       0.00141    0.50308    0.69365   1.00
C6       -0.05655   0.50234    0.71937   1.00
H2       -0.03273   0.37228    0.67965   1.00
C6       -0.07979   0.28015    0.69694   1.00
C6       -0.12739   0.35674    0.69133   1.00
H2       0.04512    0.43070    0.74267   1.00
C6       -0.06165   0.38229    0.74947   1.00
C6       0.00015    0.32169    0.74027   1.00
C6       0.24569    0.48070    0.66761   1.00
C6       0.23004    0.37711    0.64917   1.00
H2       0.22958    0.46158    0.63591   1.00
H2       0.09592    0.30504    0.63149   1.00
C6       0.00632    0.30871    0.62378   1.00
C6       0.11776    0.36814    0.60513   1.00
H2       0.06447    0.45320    0.63003   1.00
C6       0.09479    0.51175    0.65709   1.00
C6       0.16788    0.53351    0.62647   1.00
H2       0.11508    0.56582    0.70940   1.00
H2       0.07840    0.55597    0.73373   1.00
H2       0.06840    0.60639    0.71505   1.00
H2       -0.06473   0.53852    0.71054   1.00
H2       -0.10454   0.45437    0.71969   1.00
H2       -0.04561   0.52192    0.73488   1.00
H2       -0.10643   0.25071    0.68346   1.00
H2       -0.03580   0.27349    0.69900   1.00
H2       -0.11404   0.25741    0.70985   1.00
H2       -0.11852   0.40653    0.68641   1.00
H2       -0.15889   0.32053    0.67957   1.00
H2       -0.15716   0.34235    0.70533   1.00
H2       -0.11076   0.35017    0.74211   1.00
H2       -0.06305   0.36010    0.76434   1.00
H2       -0.05626   0.43180    0.75269   1.00
H2       -0.05067   0.27668    0.73971   1.00
H2       0.03169    0.31303    0.72971   1.00
H2       0.02057    0.32340    0.75543   1.00
H2       0.23790    0.45299    0.68178   1.00
H2       0.30058    0.50837    0.66468   1.00
H2       0.23036    0.51874    0.66990   1.00
H2       0.28567    0.40191    0.64850   1.00
H2       0.21398    0.34502    0.66263   1.00
H2       0.21093    0.34422    0.63586   1.00
H2       -0.01110   0.26458    0.61376   1.00
H2       -0.02048   0.28966    0.63819   1.00
H2       -0.00966   0.34263    0.61715   1.00
H2       0.17323    0.39240    0.60559   1.00
H2       0.09952    0.32410    0.59502   1.00
H2       0.10411    0.40360    0.59827   1.00
H2       0.13609    0.53418    0.66814   1.00
H2       0.08580    0.55194    0.65145   1.00
H2       0.04884    0.47523    0.66501   1.00
H2       0.15150    0.56828    0.62066   1.00
H2       0.21410    0.56366    0.63541   1.00
H2       0.18106    0.51321    0.61333   1.00
C4       0.18591    0.82951    0.71690   1.00
C4       0.15752    0.85619    0.70268   1.00
C3       0.14729    0.78195    0.73231   1.00
C3       0.08926    0.84282    0.70361   1.00
C3       0.25707    0.85208    0.71598   1.00
C3       0.19912    0.89853    0.68653   1.00
C2       0.24777    0.78058    0.74570   1.00
C2       0.10437    0.91330    0.67362   1.00
C3       0.17739    0.75843    0.74639   1.00
C3       0.06319    0.87005    0.68938   1.00
C3       0.28622    0.82676    0.73009   1.00
C3       0.17274    0.92781    0.67286   1.00
H1       0.09611    0.76283    0.73372   1.00
H1       0.05660    0.81326    0.71473   1.00
C5       0.29859    0.89956    0.70093   1.00
C5       0.26696    0.91196    0.68418   1.00
H1       0.14699    0.72444    0.75730   1.00
H1       0.01326    0.85816    0.69070   1.00
H1       0.33695    0.84196    0.72890   1.00
H1       0.20445    0.96148    0.66218   1.00
O3       0.36851    0.92971    0.70216   1.00
O3       0.30332    0.94108    0.66662   1.00
Si1      0.41262    1.00331    0.71347   1.00
Si1      0.29377    0.89188    0.64734   1.00
C6       0.49198    1.00624    0.71311   1.00
C6       0.41320    1.06577    0.69737   1.00
C6       0.38541    1.00366    0.73855   1.00
C6       0.23487    0.80368    0.64959   1.00
C6       0.26774    0.92641    0.62779   1.00
C6       0.37514    0.90504    0.64111   1.00
C6       0.49112    0.93972    0.72021   1.00
H2       0.50354    1.01051    0.69692   1.00
C6       0.55657    1.06647    0.72341   1.00
H2       0.40515    1.04166    0.68252   1.00
C6       0.35528    1.08378    0.69983   1.00
C6       0.48055    1.13608    0.69539   1.00
H2       0.38145    0.95712    0.74481   1.00
C6       0.43574    1.06315    0.75275   1.00
C6       0.31456    0.99880    0.74230   1.00
C6       0.24476    0.76377    0.66738   1.00
C6       0.15654    0.77772    0.64848   1.00
H2       0.24462    0.78322    0.63580   1.00
H2       0.21622    0.91358    0.63218   1.00
C6       0.30846    1.00597    0.62574   1.00
C6       0.26218    0.89706    0.60596   1.00
H2       0.39820    0.95185    0.63215   1.00
C6       0.42519    0.92009    0.65916   1.00
C6       0.37936    0.85017    0.62770   1.00
H2       0.45456    0.89534    0.71151   1.00
H2       0.47764    0.92940    0.73626   1.00
H2       0.54094    0.94389    0.71807   1.00
H2       0.60244    1.07734    0.71494   1.00
H2       0.55455    1.11338    0.72407   1.00
H2       0.56406    1.05425    0.73888   1.00
H2       0.35284    1.11135    0.68653   1.00
H2       0.30523    1.03842    0.70124   1.00
H2       0.36413    1.11620    0.71305   1.00
H2       0.52321    1.12967    0.69069   1.00
H2       0.47577    1.16812    0.68383   1.00
H2       0.49342    1.16415    0.70970   1.00
H2       0.45186    1.11277    0.74586   1.00
H2       0.41281    1.06188    0.76748   1.00
H2       0.48058    1.05929    0.75622   1.00
H2       0.31843    1.04881    0.74214   1.00
H2       0.27608    0.96757    0.73126   1.00
H2       0.29461    0.97623    0.75718   1.00
H2       0.22253    0.76888    0.68146   1.00
H2       0.21963    0.70931    0.66389   1.00
H2       0.29828    0.78067    0.67014   1.00
H2       0.12750    0.72211    0.64721   1.00
H2       0.13800    0.79115    0.66193   1.00
H2       0.14319    0.79744    0.63523   1.00
H2       0.28164    1.02313    0.61566   1.00
H2       0.31361    1.03077    0.64037   1.00
H2       0.35943    1.02444    0.61956   1.00
H2       0.23261    0.84147    0.60582   1.00
H2       0.23626    0.91507    0.59581   1.00
H2       0.31246    0.91324    0.59953   1.00
H2       0.40641    0.87758    0.66978   1.00
H2       0.47560    0.93157    0.65391   1.00
H2       0.43199    0.96447    0.66745   1.00
H2       0.43148    0.86898    0.62235   1.00
H2       0.36388    0.80322    0.63620   1.00
H2       0.34725    0.83749    0.61426   1.00
