data_IRMOF10_interpen_symm_ligand3lp_label_c_2.

_audit_creation_method             'generated by an auxiliary program of Tobunporous'

_symmetry_space_group_name_H-M     'P 1'
_symmetry_Int_Tables_number        1
_symmetry_cell_setting             triclinic

_cell_length_a                    22.6523
_cell_length_b                    22.6523
_cell_length_c                    65.9502
_cell_angle_alpha                 90.0000
_cell_angle_beta                  90.0000
_cell_angle_gamma                 120.0000

loop_
_atom_site_label
_atom_site_fract_x
_atom_site_fract_y
_atom_site_fract_z
_atom_site_occupancy
O1       0.00000    -0.00000   0.62500   1.00
Zn1      0.00000    -0.00000   0.59589   1.00
Zn1      0.94848    1.04288    0.63392   1.00
Zn1      0.09439    0.05152    0.63392   1.00
Zn1      -0.04288   0.90561    0.63392   1.00
O2       0.93860    0.02610    0.58587   1.00
O2       0.08750    0.06140    0.58587   1.00
O2       -0.02610   0.91250    0.58587   1.00
O2       0.91305    0.07161    0.61181   1.00
O2       0.00462    0.12022    0.65110   1.00
O2       0.87413    0.98074    0.65071   1.00
O2       0.15856    0.08695    0.61181   1.00
O2       0.10660    0.12587    0.65071   1.00
O2       0.11559    0.99538    0.65110   1.00
O2       -0.07161   0.84144    0.61181   1.00
O2       0.87978    0.88441    0.65110   1.00
O2       0.01926    0.89340    0.65071   1.00
C1       0.91390    0.06020    0.59358   1.00
C1       0.14630    0.08610    0.59358   1.00
C1       -0.06020   0.85370    0.59358   1.00
C1       0.06663    0.14397    0.65673   1.00
C1       0.85603    0.92267    0.65673   1.00
C1       0.07733    0.93337    0.65673   1.00
O1       -0.00000   0.00000    0.87500   1.00
Zn1      -0.00000   0.00000    0.90411   1.00
Zn1      1.04288    0.94848    0.86608   1.00
Zn1      0.05152    0.09439    0.86608   1.00
Zn1      0.90561    -0.04288   0.86608   1.00
O2       0.02610    0.93860    0.91413   1.00
O2       0.06140    0.08750    0.91413   1.00
O2       0.91250    -0.02610   0.91413   1.00
O2       0.07161    0.91305    0.88819   1.00
O2       0.12022    0.00462    0.84890   1.00
O2       0.98074    0.87413    0.84929   1.00
O2       0.08695    0.15856    0.88819   1.00
O2       0.12587    0.10660    0.84929   1.00
O2       0.99538    0.11559    0.84890   1.00
O2       0.84144    -0.07161   0.88819   1.00
O2       0.88441    0.87978    0.84890   1.00
O2       0.89340    0.01926    0.84929   1.00
C1       0.06020    0.91390    0.90642   1.00
C1       0.08610    0.14630    0.90642   1.00
C1       0.85370    -0.06020   0.90642   1.00
C1       0.14397    0.06663    0.84327   1.00
C1       0.92267    0.85603    0.84327   1.00
C1       0.93337    0.07733    0.84327   1.00
O1       0.00000    0.00000    0.37500   1.00
Zn1      0.00000    0.00000    0.40411   1.00
Zn1      0.05152    -0.04288   0.36608   1.00
Zn1      0.90561    0.94848    0.36608   1.00
Zn1      1.04288    0.09439    0.36608   1.00
O2       0.06140    -0.02610   0.41413   1.00
O2       0.91250    0.93860    0.41413   1.00
O2       0.02610    0.08750    0.41413   1.00
O2       0.08695    -0.07161   0.38819   1.00
O2       0.99538    0.87978    0.34890   1.00
O2       0.12587    0.01926    0.34929   1.00
O2       0.84144    0.91305    0.38819   1.00
O2       0.89340    0.87413    0.34929   1.00
O2       0.88441    0.00462    0.34890   1.00
O2       0.07161    0.15856    0.38819   1.00
O2       0.12022    0.11559    0.34890   1.00
O2       0.98074    0.10660    0.34929   1.00
C1       0.08610    -0.06020   0.40642   1.00
C1       0.85370    0.91390    0.40642   1.00
C1       0.06020    0.14630    0.40642   1.00
C1       0.93337    0.85603    0.34327   1.00
C1       0.14397    0.07733    0.34327   1.00
C1       0.92267    0.06663    0.34327   1.00
O1       0.00000    0.00000    0.12500   1.00
Zn1      0.00000    0.00000    0.09589   1.00
Zn1      -0.04288   0.05152    0.13392   1.00
Zn1      0.94848    0.90561    0.13392   1.00
Zn1      0.09439    1.04288    0.13392   1.00
O2       -0.02610   0.06140    0.08587   1.00
O2       0.93860    0.91250    0.08587   1.00
O2       0.08750    0.02610    0.08587   1.00
O2       -0.07161   0.08695    0.11181   1.00
O2       0.87978    0.99538    0.15110   1.00
O2       0.01926    0.12587    0.15071   1.00
O2       0.91305    0.84144    0.11181   1.00
O2       0.87413    0.89340    0.15071   1.00
O2       0.00462    0.88441    0.15110   1.00
O2       0.15856    0.07161    0.11181   1.00
O2       0.11559    0.12022    0.15110   1.00
O2       0.10660    0.98074    0.15071   1.00
C1       -0.06020   0.08610    0.09358   1.00
C1       0.91390    0.85370    0.09358   1.00
C1       0.14630    0.06020    0.09358   1.00
C1       0.85603    0.93337    0.15673   1.00
C1       0.07733    0.14397    0.15673   1.00
C1       0.06663    0.92267    0.15673   1.00
O1       0.66667    0.33333    0.95833   1.00
Zn1      0.66667    0.33333    0.92922   1.00
Zn1      0.61515    0.37621    0.96725   1.00
Zn1      0.76106    0.38485    0.96725   1.00
Zn1      -0.37621   0.23894    0.96725   1.00
O2       0.60527    0.35943    0.91920   1.00
O2       0.75417    0.39473    0.91920   1.00
O2       0.64057    0.24583    0.91920   1.00
O2       0.57972    0.40494    0.94514   1.00
O2       0.67129    0.45355    0.98443   1.00
O2       0.54080    0.31407    0.98404   1.00
O2       0.82523    0.42028    0.94514   1.00
O2       0.77327    0.45920    0.98404   1.00
O2       -0.21774   0.32871    0.98443   1.00
O2       0.59506    0.17477    0.94514   1.00
O2       0.54645    0.21774    0.98443   1.00
O2       -0.31407   0.22673    0.98404   1.00
C1       0.58057    0.39353    0.92691   1.00
C1       0.81297    0.41943    0.92691   1.00
C1       0.60647    0.18703    0.92691   1.00
C1       0.73330    0.47730    0.99006   1.00
C1       0.52270    0.25600    0.99006   1.00
C1       -0.25600   0.26670    0.99006   1.00
O1       0.66667    0.33333    0.20833   1.00
Zn1      0.66667    0.33333    0.23744   1.00
Zn1      0.70954    0.28182    0.19942   1.00
Zn1      0.71818    0.42773    0.19942   1.00
Zn1      0.57227    0.29046    0.19942   1.00
O2       0.69277    0.27193    0.24746   1.00
O2       0.72807    0.42083    0.24746   1.00
O2       0.57917    0.30723    0.24746   1.00
O2       0.73828    0.24638    0.22152   1.00
O2       0.78688    0.33796    0.18224   1.00
O2       0.64740    0.20747    0.18263   1.00
O2       0.75362    0.49189    0.22152   1.00
O2       0.79253    0.43994    0.18263   1.00
O2       0.66204    0.44893    0.18224   1.00
O2       0.50811    0.26172    0.22152   1.00
O2       0.55107    0.21312    0.18224   1.00
O2       0.56006    0.35260    0.18263   1.00
C1       0.72687    0.24723    0.23975   1.00
C1       0.75277    0.47963    0.23975   1.00
C1       0.52037    0.27313    0.23975   1.00
C1       0.81063    0.39997    0.17661   1.00
C1       0.58933    0.18937    0.17661   1.00
C1       0.60003    0.41067    0.17661   1.00
O1       0.66667    0.33333    0.70833   1.00
Zn1      0.66667    0.33333    0.73744   1.00
Zn1      0.71818    0.29046    0.69942   1.00
Zn1      0.57227    0.28182    0.69942   1.00
Zn1      0.70954    0.42773    0.69942   1.00
O2       0.72807    0.30723    0.74746   1.00
O2       0.57917    0.27193    0.74746   1.00
O2       0.69277    0.42083    0.74746   1.00
O2       0.75362    0.26172    0.72152   1.00
O2       0.66204    0.21312    0.68224   1.00
O2       0.79253    0.35260    0.68263   1.00
O2       0.50811    0.24638    0.72152   1.00
O2       0.56006    0.20747    0.68263   1.00
O2       0.55107    0.33796    0.68224   1.00
O2       0.73828    0.49189    0.72152   1.00
O2       0.78688    0.44893    0.68224   1.00
O2       0.64740    0.43994    0.68263   1.00
C1       0.75277    0.27313    0.73975   1.00
C1       0.52037    0.24723    0.73975   1.00
C1       0.72687    0.47963    0.73975   1.00
C1       0.60003    0.18937    0.67661   1.00
C1       0.81063    0.41067    0.67661   1.00
C1       0.58933    0.39997    0.67661   1.00
O1       0.66667    0.33333    0.45833   1.00
Zn1      0.66667    0.33333    0.42922   1.00
Zn1      -0.37621   0.38485    0.46725   1.00
Zn1      0.61515    0.23894    0.46725   1.00
Zn1      0.76106    0.37621    0.46725   1.00
O2       0.64057    0.39473    0.41920   1.00
O2       0.60527    0.24583    0.41920   1.00
O2       0.75417    0.35943    0.41920   1.00
O2       0.59506    0.42028    0.44514   1.00
O2       0.54645    0.32871    0.48443   1.00
O2       -0.31407   0.45920    0.48404   1.00
O2       0.57972    0.17477    0.44514   1.00
O2       0.54080    0.22673    0.48404   1.00
O2       0.67129    0.21774    0.48443   1.00
O2       0.82523    0.40494    0.44514   1.00
O2       -0.21774   0.45355    0.48443   1.00
O2       0.77327    0.31407    0.48404   1.00
C1       0.60647    0.41943    0.42691   1.00
C1       0.58057    0.18703    0.42691   1.00
C1       0.81297    0.39353    0.42691   1.00
C1       0.52270    0.26670    0.49006   1.00
C1       -0.25600   0.47730    0.49006   1.00
C1       0.73330    0.25600    0.49006   1.00
O1       0.33333    0.66667    0.29167   1.00
Zn1      0.33333    0.66667    0.26256   1.00
Zn1      0.28182    0.70954    0.30058   1.00
Zn1      0.42773    0.71818    0.30058   1.00
Zn1      0.29046    0.57227    0.30058   1.00
O2       0.27193    0.69277    0.25254   1.00
O2       0.42083    0.72807    0.25254   1.00
O2       0.30723    0.57917    0.25254   1.00
O2       0.24638    0.73828    0.27848   1.00
O2       0.33796    0.78688    0.31776   1.00
O2       0.20747    0.64740    0.31737   1.00
O2       0.49189    0.75362    0.27848   1.00
O2       0.43994    0.79253    0.31737   1.00
O2       0.44893    0.66204    0.31776   1.00
O2       0.26172    0.50811    0.27848   1.00
O2       0.21312    0.55107    0.31776   1.00
O2       0.35260    0.56006    0.31737   1.00
C1       0.24723    0.72687    0.26025   1.00
C1       0.47963    0.75277    0.26025   1.00
C1       0.27313    0.52037    0.26025   1.00
C1       0.39997    0.81063    0.32339   1.00
C1       0.18937    0.58933    0.32339   1.00
C1       0.41067    0.60003    0.32339   1.00
O1       0.33333    0.66667    0.54167   1.00
Zn1      0.33333    0.66667    0.57078   1.00
Zn1      0.37621    0.61515    0.53275   1.00
Zn1      0.38485    0.76106    0.53275   1.00
Zn1      0.23894    -0.37621   0.53275   1.00
O2       0.35943    0.60527    0.58080   1.00
O2       0.39473    0.75417    0.58080   1.00
O2       0.24583    0.64057    0.58080   1.00
O2       0.40494    0.57972    0.55486   1.00
O2       0.45355    0.67129    0.51557   1.00
O2       0.31407    0.54080    0.51596   1.00
O2       0.42028    0.82523    0.55486   1.00
O2       0.45920    0.77327    0.51596   1.00
O2       0.32871    -0.21774   0.51557   1.00
O2       0.17477    0.59506    0.55486   1.00
O2       0.21774    0.54645    0.51557   1.00
O2       0.22673    -0.31407   0.51596   1.00
C1       0.39353    0.58057    0.57309   1.00
C1       0.41943    0.81297    0.57309   1.00
C1       0.18703    0.60647    0.57309   1.00
C1       0.47730    0.73330    0.50994   1.00
C1       0.25600    0.52270    0.50994   1.00
C1       0.26670    -0.25600   0.50994   1.00
O1       0.33333    0.66667    0.04167   1.00
Zn1      0.33333    0.66667    0.07078   1.00
Zn1      0.38485    -0.37621   0.03275   1.00
Zn1      0.23894    0.61515    0.03275   1.00
Zn1      0.37621    0.76106    0.03275   1.00
O2       0.39473    0.64057    0.08080   1.00
O2       0.24583    0.60527    0.08080   1.00
O2       0.35943    0.75417    0.08080   1.00
O2       0.42028    0.59506    0.05486   1.00
O2       0.32871    0.54645    0.01557   1.00
O2       0.45920    -0.31407   0.01596   1.00
O2       0.17477    0.57972    0.05486   1.00
O2       0.22673    0.54080    0.01596   1.00
O2       0.21774    0.67129    0.01557   1.00
O2       0.40494    0.82523    0.05486   1.00
O2       0.45355    -0.21774   0.01557   1.00
O2       0.31407    0.77327    0.01596   1.00
C1       0.41943    0.60647    0.07309   1.00
C1       0.18703    0.58057    0.07309   1.00
C1       0.39353    0.81297    0.07309   1.00
C1       0.26670    0.52270    0.00994   1.00
C1       0.47730    -0.25600   0.00994   1.00
C1       0.25600    0.73330    0.00994   1.00
O1       0.33333    0.66667    0.79167   1.00
Zn1      0.33333    0.66667    0.76256   1.00
Zn1      0.29046    0.71818    0.80058   1.00
Zn1      0.28182    0.57227    0.80058   1.00
Zn1      0.42773    0.70954    0.80058   1.00
O2       0.30723    0.72807    0.75254   1.00
O2       0.27193    0.57917    0.75254   1.00
O2       0.42083    0.69277    0.75254   1.00
O2       0.26172    0.75362    0.77848   1.00
O2       0.21312    0.66204    0.81776   1.00
O2       0.35260    0.79253    0.81737   1.00
O2       0.24638    0.50811    0.77848   1.00
O2       0.20747    0.56006    0.81737   1.00
O2       0.33796    0.55107    0.81776   1.00
O2       0.49189    0.73828    0.77848   1.00
O2       0.44893    0.78688    0.81776   1.00
O2       0.43994    0.64740    0.81737   1.00
C1       0.27313    0.75277    0.76025   1.00
C1       0.24723    0.52037    0.76025   1.00
C1       0.47963    0.72687    0.76025   1.00
C1       0.18937    0.60003    0.82339   1.00
C1       0.41067    0.81063    0.82339   1.00
C1       0.39997    0.58933    0.82339   1.00
C4       -0.13800   0.68584    0.55149   1.00
C4       -0.16777   0.62857    0.53807   1.00
C3       -0.08265   0.70068    0.56465   1.00
C3       -0.14936   0.57713    0.53779   1.00
C3       -0.16537   0.73054    0.55214   1.00
C3       -0.21875   0.62186    0.52402   1.00
C2       -0.08286   0.80072    0.57891   1.00
C2       -0.23148   0.51352    0.51077   1.00
C3       -0.05606   0.75629    0.57807   1.00
C3       -0.17985   0.52151    0.52440   1.00
C3       -0.13699   0.78710    0.56551   1.00
C3       -0.25090   0.56391    0.51125   1.00
H1       -0.05987   0.67165    0.56483   1.00
H1       -0.11357   0.57832    0.54740   1.00
C5       -0.22070   0.71862    0.53936   1.00
C5       -0.23786   0.67258    0.52289   1.00
H1       -0.01633   0.76420    0.58734   1.00
H1       -0.16408   0.48618    0.52476   1.00
H1       -0.15590   0.81980    0.56540   1.00
H1       -0.29032   0.55763    0.50221   1.00
O3       -0.25417   0.75466    0.54239   1.00
O3       -0.27654   0.67427    0.50692   1.00
Si1      -0.32215   0.72275    0.55667   1.00
Si1      -0.23811   0.71269    0.48598   1.00
C6       -0.33124   0.79574    0.55726   1.00
C6       -0.38902   0.65592    0.54296   1.00
C6       -0.30863   0.70065    0.58122   1.00
C6       -0.14878   0.74786    0.48445   1.00
C6       -0.27803   0.64863    0.46758   1.00
C6       -0.25983   0.77599    0.48114   1.00
C6       -0.26472   0.86494    0.56191   1.00
H2       -0.34378   0.79959    0.54150   1.00
C6       -0.38860   0.79711    0.57028   1.00
H2       -0.37246   0.67058    0.52731   1.00
C6       -0.40047   0.58220    0.54543   1.00
C6       -0.46191   0.64740    0.54422   1.00
H2       -0.26122   0.74607    0.58573   1.00
C6       -0.36235   0.68980    0.59794   1.00
C6       -0.29677   0.63841    0.58402   1.00
C6       -0.10334   0.80169    0.50074   1.00
C6       -0.11858   0.69944    0.48160   1.00
H2       -0.13657   0.77598    0.47017   1.00
H2       -0.25980   0.61328    0.47093   1.00
C6       -0.35767   0.60501    0.46881   1.00
C6       -0.25996   0.66989    0.44486   1.00
H2       -0.31025   0.74812    0.47417   1.00
C6       -0.26955   0.81151    0.50007   1.00
C6       -0.21435   0.83448    0.46595   1.00
H2       -0.22383   0.87431    0.55133   1.00
H2       -0.24636   0.86548    0.57728   1.00
H2       -0.27354   0.90802    0.56046   1.00
H2       -0.40644   0.82838    0.56276   1.00
H2       -0.43267   0.74676    0.57258   1.00
H2       -0.37034   0.81961    0.58524   1.00
H2       -0.43268   0.54904    0.53322   1.00
H2       -0.35288   0.58138    0.54468   1.00
H2       -0.42575   0.55942    0.55976   1.00
H2       -0.46133   0.69410    0.53978   1.00
H2       -0.49736   0.60768    0.53387   1.00
H2       -0.48286   0.63316    0.55952   1.00
H2       -0.41394   0.65272    0.59305   1.00
H2       -0.35249   0.67167    0.61223   1.00
H2       -0.36054   0.73738    0.60171   1.00
H2       -0.34463   0.59034    0.58569   1.00
H2       -0.26932   0.63192    0.57157   1.00
H2       -0.26684   0.64521    0.59774   1.00
H2       -0.09987   0.77753    0.51463   1.00
H2       -0.05133   0.83334    0.49508   1.00
H2       -0.12223   0.83599    0.50464   1.00
H2       -0.06414   0.72891    0.47805   1.00
H2       -0.12360   0.67010    0.49520   1.00
H2       -0.14247   0.66395    0.46904   1.00
H2       -0.37659   0.55981    0.45916   1.00
H2       -0.37476   0.58682    0.48424   1.00
H2       -0.38204   0.63369    0.46389   1.00
H2       -0.20496   0.69904    0.44244   1.00
H2       -0.27980   0.62467    0.43519   1.00
H2       -0.28222   0.70024    0.43961   1.00
H2       -0.22277   0.83932    0.50888   1.00
H2       -0.28681   0.84704    0.49581   1.00
H2       -0.30833   0.77355    0.50993   1.00
H2       -0.23875   0.86407    0.46187   1.00
H2       -0.16461   0.86968    0.47253   1.00
H2       -0.20612   0.81451    0.45185   1.00
C4       0.31638    0.17663    0.55230   1.00
C4       0.37319    0.20347    0.53872   1.00
C3       0.31984    0.20157    0.57228   1.00
C3       0.44044    0.25357    0.54436   1.00
C3       0.25253    0.12104    0.54582   1.00
C3       0.36284    0.17943    0.51829   1.00
C2       0.20008    0.11737    0.57920   1.00
C2       0.48568    0.25405    0.51048   1.00
C3       0.26344    0.17254    0.58541   1.00
C3       0.49504    0.27865    0.53059   1.00
C3       0.19588    0.09331    0.55916   1.00
C3       0.41907    0.20324    0.50490   1.00
H1       0.36338    0.24171    0.57786   1.00
H1       0.45183    0.27300    0.55868   1.00
C5       0.24560    0.09372    0.52602   1.00
C5       0.29665    0.13138    0.51136   1.00
H1       0.26911    0.19239    0.59974   1.00
H1       0.54246    0.31529    0.53547   1.00
H1       0.14992    0.05470    0.55411   1.00
H1       0.41160    0.18234    0.49073   1.00
O3       0.18786    0.03339    0.52101   1.00
O3       0.28314    0.11770    0.49092   1.00
Si1      0.18722    -0.03870   0.52344   1.00
Si1      0.26533    0.16709    0.47737   1.00
C6       0.09958    -0.09303   0.51850   1.00
C6       0.23791    -0.04274   0.50380   1.00
C6       0.20898    -0.05187   0.54808   1.00
C6       0.26711    0.23776    0.48939   1.00
C6       0.32718    0.19603    0.45813   1.00
C6       0.18506    0.11486    0.46612   1.00
C6       0.04959    -0.07597   0.53016   1.00
H2       0.09561    -0.08218   0.50258   1.00
C6       0.06640    -0.17260   0.51988   1.00
H2       0.23501    -0.00948   0.49235   1.00
C6       0.31569    -0.01353   0.50790   1.00
C6       0.21347    -0.11264   0.49292   1.00
H2       0.17733    -0.03928   0.55761   1.00
C6       0.18995    -0.12641   0.55391   1.00
C6       0.28430    -0.00681   0.55583   1.00
C6       0.22031    0.22400    0.50830   1.00
C6       0.33737    0.30203    0.49465   1.00
H2       0.24632    0.25626    0.47767   1.00
H2       0.37457    0.23027    0.46600   1.00
C6       0.33964    0.14072    0.44795   1.00
C6       0.32023    0.23836    0.44050   1.00
H2       0.19629    0.09264    0.45302   1.00
C6       0.13262    0.05264    0.47889   1.00
C6       0.14537    0.14976    0.45767   1.00
H2       0.06196    -0.02340   0.52750   1.00
H2       0.05139    -0.08303   0.54650   1.00
H2       -0.00302   -0.10857   0.52511   1.00
H2       0.02548    -0.19716   0.50870   1.00
H2       0.10254    -0.18996   0.51704   1.00
H2       0.04329    -0.19241   0.53469   1.00
H2       0.34343    -0.00572   0.49366   1.00
H2       0.33889    0.03586    0.51540   1.00
H2       0.32434    -0.04845   0.51716   1.00
H2       0.16225    -0.13314   0.48670   1.00
H2       0.24646    -0.10714   0.48008   1.00
H2       0.21400    -0.14998   0.50329   1.00
H2       0.21033    -0.14760   0.54288   1.00
H2       0.20955    -0.12888   0.56887   1.00
H2       0.13507    -0.15961   0.55493   1.00
H2       0.31634    -0.02831   0.55167   1.00
H2       0.30928    0.04497    0.55012   1.00
H2       0.28497    -0.00337   0.57238   1.00
H2       0.24398    0.21943    0.52214   1.00
H2       0.21048    0.26615    0.51059   1.00
H2       0.17095    0.17790    0.50661   1.00
H2       0.33032    0.34449    0.49930   1.00
H2       0.36314    0.29258    0.50709   1.00
H2       0.37174    0.32015    0.48166   1.00
H2       0.38623    0.16493    0.43882   1.00
H2       0.34640    0.10941    0.45930   1.00
H2       0.29763    0.10694    0.43803   1.00
H2       0.31336    0.27974    0.44622   1.00
H2       0.36644    0.26174    0.43119   1.00
H2       0.27743    0.20624    0.43056   1.00
H2       0.11905    0.06824    0.49296   1.00
H2       0.08582    0.02075    0.47039   1.00
H2       0.15410    0.02071    0.48281   1.00
H2       0.10199    0.11404    0.44842   1.00
H2       0.12562    0.16749    0.46993   1.00
H2       0.17750    0.19316    0.44798   1.00
C4       0.82785    0.14566    0.55285   1.00
C4       0.80095    0.17467    0.53893   1.00
C3       0.86978    0.18161    0.56964   1.00
C3       0.81828    0.24422    0.53932   1.00
C3       0.81320    0.07723    0.54978   1.00
C3       0.75390    0.13229    0.52374   1.00
C2       0.88305    0.08450    0.57971   1.00
C2       0.74553    0.22984    0.50997   1.00
C3       0.89695    0.15205    0.58263   1.00
C3       0.79087    0.27094    0.52537   1.00
C3       0.84006    0.04791    0.56329   1.00
C3       0.72913    0.16088    0.50928   1.00
H1       0.88161    0.23024    0.57295   1.00
H1       0.85165    0.27762    0.54967   1.00
C5       0.77159    0.03846    0.53328   1.00
C5       0.73224    0.06180    0.52291   1.00
H1       0.92736    0.18069    0.59444   1.00
H1       0.80478    0.32148    0.52648   1.00
H1       0.82757    -0.00184   0.56122   1.00
H1       0.69894    0.13088    0.49772   1.00
O3       0.76690    -0.02290   0.52838   1.00
O3       0.67726    0.01756    0.51111   1.00
Si1      0.81772    -0.02545   0.51127   1.00
Si1      0.60056    -0.01454   0.52046   1.00
C6       0.79514    -0.11145   0.51494   1.00
C6       0.79003    -0.01348   0.48743   1.00
C6       0.90491    0.03012    0.51655   1.00
C6       0.59135    0.01127    0.54501   1.00
C6       0.55905    0.01010    0.50276   1.00
C6       0.56266    -0.10396   0.51943   1.00
C6       0.79293    -0.13419   0.53752   1.00
H2       0.74223    -0.13865   0.50978   1.00
C6       0.83193    -0.14370   0.50291   1.00
H2       0.73630    -0.03103   0.49031   1.00
C6       0.82102    0.06090    0.47911   1.00
C6       0.79099    -0.05660   0.46901   1.00
H2       0.90842    0.01922    0.53251   1.00
C6       0.95783    0.01714    0.50499   1.00
C6       0.93509    0.10935    0.51493   1.00
C6       0.62987    0.00004    0.56294   1.00
C6       0.60037    0.08392    0.54815   1.00
H2       0.53732    -0.02299   0.54810   1.00
H2       0.58276    0.06508    0.50493   1.00
C6       0.57079    0.00039    0.47988   1.00
C6       0.48057    -0.01974   0.50547   1.00
H2       0.54529    -0.11661   0.50376   1.00
C6       0.61117    -0.13339   0.52273   1.00
C6       0.49849    -0.14780   0.53299   1.00
H2       0.75914    -0.12366   0.54673   1.00
H2       0.84363    -0.10785   0.54441   1.00
H2       0.77355    -0.18905   0.53857   1.00
H2       0.79618    -0.19757   0.49988   1.00
H2       0.85217    -0.11899   0.48841   1.00
H2       0.87417    -0.14181   0.51146   1.00
H2       0.78996    0.06282    0.46670   1.00
H2       0.82269    0.09609    0.49064   1.00
H2       0.87246    0.07977    0.47324   1.00
H2       0.76158    -0.11114   0.47220   1.00
H2       0.76779    -0.04825   0.45556   1.00
H2       0.84310    -0.04304   0.46503   1.00
H2       0.95003    0.01552    0.48861   1.00
H2       1.01045    0.05672    0.50814   1.00
H2       0.95463    -0.03026   0.50980   1.00
H2       0.95223    0.12822    0.49958   1.00
H2       0.89940    0.12573    0.51928   1.00
H2       0.97938    0.13590    0.52491   1.00
H2       0.68263    0.04115    0.56396   1.00
H2       0.60556    -0.00132   0.57740   1.00
H2       0.62972    -0.04795   0.56161   1.00
H2       0.58376    0.08858    0.56335   1.00
H2       0.65322    0.12422    0.54663   1.00
H2       0.56964    0.09420    0.53755   1.00
H2       0.55297    0.02748    0.47017   1.00
H2       0.62492    0.02121    0.47656   1.00
H2       0.54368    -0.05319   0.47543   1.00
H2       0.46771    -0.01334   0.52095   1.00
H2       0.46259    0.00669    0.49552   1.00
H2       0.45203    -0.07388   0.50161   1.00
H2       0.63418    -0.12174   0.53779   1.00
H2       0.58455    -0.18865   0.52068   1.00
H2       0.65211    -0.11173   0.51166   1.00
H2       0.47380    -0.20164   0.52873   1.00
H2       0.51216    -0.14401   0.54902   1.00
H2       0.46032    -0.13224   0.53129   1.00
C4       0.68274    -0.14686   0.94735   1.00
C4       0.62692    -0.17546   0.96130   1.00
C3       0.70047    -0.18665   0.93483   1.00
C3       0.58720    -0.24634   0.96546   1.00
C3       0.72415    -0.07448   0.94593   1.00
C3       0.60917    -0.13129   0.97173   1.00
C2       0.79845    -0.08518   0.92025   1.00
C2       0.51579    -0.22916   0.99007   1.00
C3       0.75695    -0.15672   0.92173   1.00
C3       0.53276    -0.27256   0.97930   1.00
C3       0.78013    -0.04526   0.93235   1.00
C3       0.55600    -0.15843   0.98626   1.00
H1       0.67274    -0.23855   0.93480   1.00
H1       0.59692    -0.28097   0.95865   1.00
C5       0.70919    -0.03176   0.95802   1.00
C5       0.64486    -0.06025   0.96777   1.00
H1       0.76759    -0.18808   0.91315   1.00
H1       0.50545    -0.32432   0.98158   1.00
H1       0.80823    0.00673    0.93108   1.00
H1       0.54677    -0.12572   0.99454   1.00
O3       0.75538    0.03708    0.95913   1.00
O3       0.62032    -0.01878   0.97453   1.00
Si1      0.81161    0.06653    0.97740   1.00
Si1      0.56400    -0.01208   0.96079   1.00
C6       0.85992    0.15078    0.96822   1.00
C6       0.76820    0.06352    0.99992   1.00
C6       0.86131    0.02647    0.97878   1.00
C6       0.53483    -0.06075   0.93828   1.00
C6       0.49533    -0.03717   0.97758   1.00
C6       0.59777    0.07513    0.95535   1.00
C6       0.87933    0.15813    0.94516   1.00
H2       0.82401    0.16947    0.96962   1.00
C6       0.92640    0.20479    0.97941   1.00
H2       0.72415    0.06558    0.99410   1.00
C6       0.73845    -0.00238   1.01325   1.00
C6       0.80363    0.12413    1.01526   1.00
H2       0.87625    0.02747    0.96297   1.00
C6       0.92932    0.06371    0.99121   1.00
C6       0.82734    -0.04986   0.98591   1.00
C6       0.58887    -0.05118   0.92191   1.00
C6       0.48364    -0.13931   0.93965   1.00
H2       0.50460    -0.04082   0.93132   1.00
H2       0.47520    -0.09182   0.97946   1.00
C6       0.51387    -0.00649   0.99949   1.00
C6       0.43438    -0.02850   0.97029   1.00
H2       0.58753    0.09562    0.96904   1.00
C6       0.67655    0.11799    0.95241   1.00
C6       0.56569    0.09490    0.93741   1.00
H2       0.83423    0.13058    0.93559   1.00
H2       0.91373    0.13851    0.94197   1.00
H2       0.90452    0.21146    0.94036   1.00
H2       0.93223    0.25555    0.97795   1.00
H2       0.92612    0.19432    0.99550   1.00
H2       0.97235    0.20809    0.97293   1.00
H2       0.70116    -0.00387   1.02408   1.00
H2       0.71184    -0.04858   1.00419   1.00
H2       0.77852    -0.00430   1.02192   1.00
H2       0.81774    0.17276    1.00802   1.00
H2       0.76944    0.11862    1.02776   1.00
H2       0.84915    0.12677    1.02185   1.00
H2       0.92020    0.07541    1.00656   1.00
H2       0.95420    0.03302    0.99242   1.00
H2       0.96646    0.11064    0.98383   1.00
H2       0.82850    -0.05423   1.00238   1.00
H2       0.77463    -0.08069   0.98126   1.00
H2       0.85485    -0.07378   0.97951   1.00
H2       0.61236    -0.08192   0.92524   1.00
H2       0.56487    -0.06711   0.90700   1.00
H2       0.62917    0.00177    0.92051   1.00
H2       0.46313    -0.16019   0.92466   1.00
H2       0.50763    -0.16727   0.94539   1.00
H2       0.43983    -0.15111   0.94923   1.00
H2       0.47017    -0.03360   1.00964   1.00
H2       0.55553    -0.01166   1.00593   1.00
H2       0.52882    0.04739    0.99974   1.00
H2       0.41656    -0.05044   0.95527   1.00
H2       0.39104    -0.05477   0.98063   1.00
H2       0.44829    0.02514    0.96988   1.00
H2       0.69380    0.10060    0.93948   1.00
H2       0.69374    0.17205    0.95029   1.00
H2       0.70208    0.11400    0.96584   1.00
H2       0.58355    0.14959    0.93755   1.00
H2       0.57940    0.08272    0.92273   1.00
H2       0.51024    0.06874    0.93843   1.00
C4       0.17661    0.31642    0.94768   1.00
C4       0.20344    0.37322    0.96127   1.00
C3       0.20094    0.32014    0.92760   1.00
C3       0.25285    0.44066    0.95556   1.00
C3       0.12168    0.25231    0.95427   1.00
C3       0.18012    0.36267    0.98178   1.00
C2       0.11738    0.20010    0.92079   1.00
C2       0.25404    0.48566    0.98953   1.00
C3       0.17192    0.26372    0.91448   1.00
C3       0.27795    0.49524    0.96934   1.00
C3       0.09395    0.19567    0.94092   1.00
C3       0.20390    0.41886    0.99518   1.00
H1       0.24060    0.36388    0.92195   1.00
H1       0.27175    0.45219    0.94119   1.00
C5       0.09499    0.24512    0.97416   1.00
C5       0.13280    0.29631    0.98877   1.00
H1       0.19130    0.26958    0.90008   1.00
H1       0.31408    0.54279    0.96440   1.00
H1       0.05583    0.14952    0.94604   1.00
H1       0.18348    0.41119    1.00943   1.00
O3       0.03516    0.18703    0.97931   1.00
O3       0.11993    0.28274    1.00924   1.00
Si1      -0.03741   0.18556    0.97718   1.00
Si1      0.17029    0.26561    1.02254   1.00
C6       -0.09087   0.09782    0.98216   1.00
C6       -0.04135   0.23593    0.99694   1.00
C6       -0.05179   0.20703    0.95264   1.00
C6       0.24090    0.26817    1.01023   1.00
C6       0.19938    0.32744    1.04179   1.00
C6       0.11909    0.18521    1.03384   1.00
C6       -0.07357   0.04830    0.97033   1.00
H2       -0.07934   0.09400    0.99803   1.00
C6       -0.17056   0.06391    0.98105   1.00
H2       -0.00746   0.23344    1.00824   1.00
C6       -0.01301   0.31359    0.99287   1.00
C6       -0.11097   0.21084    1.00806   1.00
H2       -0.03911   0.17570    0.94299   1.00
C6       -0.12674   0.18726    0.94708   1.00
C6       -0.00761   0.28243    0.94486   1.00
C6       0.22692    0.22148    0.99128   1.00
C6       0.30455    0.33876    1.00484   1.00
H2       0.26016    0.24772    1.02183   1.00
H2       0.23298    0.37494    1.03387   1.00
C6       0.14398    0.33921    1.05223   1.00
C6       0.24265    0.32103    1.05923   1.00
H2       0.09708    0.19613    1.04706   1.00
C6       0.05666    0.13235    1.02123   1.00
C6       0.15493    0.14615    1.04207   1.00
H2       -0.02074   0.06120    0.97279   1.00
H2       -0.08127   0.05000    0.95402   1.00
H2       -0.10556   -0.00438   0.97541   1.00
H2       -0.19438   0.02295    0.99224   1.00
H2       -0.18833   0.09964    0.98403   1.00
H2       -0.19074   0.04070    0.96628   1.00
H2       -0.00497   0.34127    1.00714   1.00
H2       0.03612    0.33722    0.98521   1.00
H2       -0.04856   0.32178    0.98378   1.00
H2       -0.13078   0.15968    1.01425   1.00
H2       -0.10536   0.24371    1.02095   1.00
H2       -0.14890   0.21093    0.99784   1.00
H2       -0.14788   0.20728    0.95824   1.00
H2       -0.12998   0.20670    0.93217   1.00
H2       -0.15954   0.13231    0.94609   1.00
H2       -0.02945   0.31404    0.94917   1.00
H2       0.04438    0.30786    0.95040   1.00
H2       -0.00475   0.28313    0.92829   1.00
H2       0.22156    0.24495    0.97751   1.00
H2       0.26934    0.21219    0.98879   1.00
H2       0.18119    0.17188    0.99306   1.00
H2       0.34715    0.33223    1.00000   1.00
H2       0.29430    0.36427    0.99250   1.00
H2       0.32284    0.37315    1.01783   1.00
H2       0.16812    0.38580    1.06135   1.00
H2       0.11202    0.34556    1.04102   1.00
H2       0.11085    0.29706    1.06220   1.00
H2       0.28414    0.31467    1.05332   1.00
H2       0.26597    0.36725    1.06853   1.00
H2       0.21120    0.27811    1.06921   1.00
H2       0.07200    0.11903    1.00706   1.00
H2       0.02543    0.08547    1.02977   1.00
H2       0.02416    0.15334    1.01749   1.00
H2       0.11984    0.10262    1.05138   1.00
H2       0.17255    0.12672    1.02969   1.00
H2       0.19856    0.17860    1.05164   1.00
C4       0.14567    0.82786    0.94715   1.00
C4       0.17468    0.80096    0.96107   1.00
C3       0.18165    0.86987    0.93038   1.00
C3       0.24425    0.81837    0.96070   1.00
C3       0.07721    0.81312    0.95021   1.00
C3       0.13227    0.75382    0.97624   1.00
C2       0.08450    0.88305    0.92029   1.00
C2       0.22984    0.74553    0.99003   1.00
C3       0.15209    0.89704    0.91738   1.00
C3       0.27096    0.79095    0.97465   1.00
C3       0.04788    0.83998    0.93670   1.00
C3       0.16085    0.72905    0.99070   1.00
H1       0.23031    0.88177    0.92708   1.00
H1       0.27767    0.85180    0.95036   1.00
C5       0.03839    0.77142    0.96668   1.00
C5       0.06176    0.73209    0.97705   1.00
H1       0.18075    0.92751    0.90559   1.00
H1       0.32152    0.80492    0.97355   1.00
H1       -0.00189   0.82743    0.93874   1.00
H1       0.13083    0.69880    1.00225   1.00
O3       -0.02302   0.76663    0.97157   1.00
O3       0.01752    0.67704    0.98882   1.00
Si1      -0.02570   0.81736    0.98869   1.00
Si1      -0.01448   0.60038    0.97945   1.00
C6       -0.11171   0.79469    0.98499   1.00
C6       -0.01378   0.78961    1.01253   1.00
C6       0.02982    0.90458    0.98344   1.00
C6       0.01146    0.59131    0.95491   1.00
C6       0.01017    0.55886    0.99715   1.00
C6       -0.10391   0.56239    0.98045   1.00
C6       -0.13437   0.79255    0.96240   1.00
H2       -0.13888   0.74176    0.99013   1.00
C6       -0.14407   0.83137    0.99703   1.00
H2       -0.03126   0.73590    1.00963   1.00
C6       0.06057    0.82063    1.02087   1.00
C6       -0.05700   0.79044    1.03094   1.00
H2       0.01896    0.90814    0.96748   1.00
C6       0.01671    0.95741    0.99501   1.00
C6       0.10905    0.93484    0.98509   1.00
C6       0.00024    0.62986    0.93698   1.00
C6       0.08415    0.60042    0.95179   1.00
H2       -0.02274   0.53728    0.95180   1.00
H2       0.06516    0.58263    0.99499   1.00
C6       0.00034    0.57049    1.02003   1.00
C6       -0.01959   0.48041    0.99442   1.00
H2       -0.11660   0.54496    0.99612   1.00
C6       -0.13340   0.61084    0.97715   1.00
C6       -0.14764   0.49826    0.96687   1.00
H2       -0.12376   0.75883    0.95319   1.00
H2       -0.10806   0.84327    0.95554   1.00
H2       -0.18924   0.77312    0.96134   1.00
H2       -0.19794   0.79557    1.00004   1.00
H2       -0.11943   0.85157    1.01154   1.00
H2       -0.14220   0.87362    0.98849   1.00
H2       0.06249    0.78955    1.03327   1.00
H2       0.09583    0.82239    1.00935   1.00
H2       0.07937    0.87204    1.02675   1.00
H2       -0.11152   0.76099    1.02772   1.00
H2       -0.04867   0.76721    1.04438   1.00
H2       -0.04351   0.84252    1.03493   1.00
H2       0.01504    0.94955    1.01139   1.00
H2       0.05626    1.01006    0.99189   1.00
H2       -0.03069   0.95417    0.99019   1.00
H2       0.12785    0.95192    1.00045   1.00
H2       0.12550    0.89921    0.98073   1.00
H2       0.13560    0.97917    0.97513   1.00
H2       0.04131    0.68265    0.93598   1.00
H2       -0.00103   0.60562    0.92252   1.00
H2       -0.04778   0.62965    0.93830   1.00
H2       0.08890    0.58389    0.93658   1.00
H2       0.12441    0.65329    0.95332   1.00
H2       0.09444    0.56968    0.96238   1.00
H2       0.02744    0.55268    1.02974   1.00
H2       0.02110    0.62460    1.02337   1.00
H2       -0.05325   0.54332    1.02446   1.00
H2       -0.01311   0.46762    0.97893   1.00
H2       0.00684    0.46243    1.00436   1.00
H2       -0.07374   0.45179    0.99825   1.00
H2       -0.12172   0.63392    0.96211   1.00
H2       -0.18868   0.58416    0.97919   1.00
H2       -0.11182   0.65174    0.98824   1.00
H2       -0.20150   0.47350    0.97111   1.00
H2       -0.14380   0.51199    0.95084   1.00
H2       -0.13203   0.46013    0.96856   1.00
C4       0.14421    0.31190    0.44931   1.00
C4       0.17359    0.36931    0.46268   1.00
C3       0.17067    0.26729    0.44665   1.00
C3       0.23575    0.39142    0.47330   1.00
C3       0.08569    0.29846    0.43764   1.00
C3       0.13932    0.40705    0.46579   1.00
C2       0.08387    0.19891    0.42122   1.00
C2       0.23047    0.48685    0.48910   1.00
C3       0.14161    0.21257    0.43291   1.00
C3       0.26311    0.44818    0.48629   1.00
C3       0.05635    0.24224    0.42414   1.00
C3       0.16924    0.46581    0.47827   1.00
H1       0.21170    0.27310    0.45466   1.00
H1       0.26320    0.36722    0.47180   1.00
C5       0.05667    0.34108    0.43958   1.00
C5       0.07576    0.38642    0.45630   1.00
H1       0.16326    0.18232    0.43152   1.00
H1       0.30792    0.46147    0.49371   1.00
H1       0.01326    0.23211    0.41629   1.00
H1       0.14631    0.49478    0.47931   1.00
O3       0.00774    0.33503    0.42598   1.00
O3       0.03552    0.41345    0.46215   1.00
Si1      0.03019    0.38352    0.40586   1.00
Si1      -0.01581   0.37973    0.48143   1.00
C6       -0.05016   0.34308    0.39379   1.00
C6       0.05279    0.46645    0.41388   1.00
C6       0.09220    0.37813    0.39100   1.00
C6       -0.01526   0.31184    0.49450   1.00
C6       0.00961    0.44907    0.49797   1.00
C6       -0.09877   0.35453    0.47284   1.00
C6       -0.08746   0.26324    0.39289   1.00
H2       -0.08077   0.35493    0.40401   1.00
C6       -0.05982   0.36609    0.37217   1.00
H2       0.02386    0.45629    0.42794   1.00
C6       0.12884    0.51667    0.41971   1.00
C6       0.03103    0.50942    0.40048   1.00
H2       0.07132    0.32305    0.38990   1.00
C6       0.10198    0.40496    0.36864   1.00
C6       0.16693    0.40885    0.39931   1.00
C6       -0.03022   0.24691    0.48212   1.00
C6       0.04553    0.32715    0.50903   1.00
H2       -0.05850   0.29502    0.50479   1.00
H2       0.05950    0.45962    0.50337   1.00
C6       0.02189    0.51720    0.48809   1.00
C6       -0.03502   0.43747    0.51728   1.00
H2       -0.10103   0.40157    0.47304   1.00
C6       -0.11543   0.32861    0.45052   1.00
C6       -0.16050   0.30195    0.48594   1.00
H2       -0.09325   0.24109    0.40798   1.00
H2       -0.05943   0.24581    0.38347   1.00
H2       -0.13881   0.24206    0.38662   1.00
H2       -0.11077   0.35986    0.37085   1.00
H2       -0.02319   0.41915    0.36891   1.00
H2       -0.05556   0.33540    0.36010   1.00
H2       0.13328    0.55993    0.42836   1.00
H2       0.14987    0.49250    0.42926   1.00
H2       0.16071    0.53704    0.40622   1.00
H2       -0.02394   0.48252    0.39794   1.00
H2       0.04344    0.55753    0.40787   1.00
H2       0.05710    0.52180    0.38584   1.00
H2       0.11169    0.45729    0.36816   1.00
H2       0.14453    0.40402    0.36108   1.00
H2       0.05756    0.37290    0.35940   1.00
H2       0.19862    0.46280    0.39557   1.00
H2       0.16944    0.40443    0.41561   1.00
H2       0.19132    0.38228    0.39256   1.00
H2       0.01531    0.25325    0.47452   1.00
H2       -0.04803   0.20282    0.49217   1.00
H2       -0.06966   0.23385    0.47073   1.00
H2       0.03391    0.28209    0.51807   1.00
H2       0.09237    0.34126    0.50079   1.00
H2       0.05568    0.36763    0.51982   1.00
H2       0.04838    0.55965    0.49871   1.00
H2       0.05401    0.52992    0.47460   1.00
H2       -0.02579   0.51475    0.48377   1.00
H2       -0.04456   0.39177    0.52554   1.00
H2       -0.00894   0.48042    0.52775   1.00
H2       -0.08396   0.43304    0.51339   1.00
H2       -0.11228   0.28262    0.44812   1.00
H2       -0.16630   0.31787    0.44603   1.00
H2       -0.07947   0.36759    0.44029   1.00
H2       -0.20803   0.29854    0.48078   1.00
H2       -0.16681   0.25094    0.48494   1.00
H2       -0.15450   0.31674    0.50186   1.00
C4       0.68567    0.82373    0.44845   1.00
C4       0.62959    0.79702    0.46231   1.00
C3       0.73951    0.80885    0.44956   1.00
C3       0.62493    0.75791    0.47970   1.00
C3       0.68919    0.86873    0.43273   1.00
C3       0.57468    0.80960    0.45871   1.00
C2       0.79903    0.88248    0.42047   1.00
C2       0.51521    0.74610    0.48985   1.00
C3       0.79484    0.83769    0.43604   1.00
C3       0.56903    0.73259    0.49299   1.00
C3       0.74479    0.89628    0.41900   1.00
C3       0.52025    0.78612    0.47277   1.00
H1       0.73998    0.77643    0.46018   1.00
H1       0.66219    0.74701    0.48329   1.00
C5       0.63701    0.88568    0.43077   1.00
C5       0.57458    0.84602    0.44125   1.00
H1       0.83254    0.82545    0.43767   1.00
H1       0.56812    0.70412    0.50523   1.00
H1       0.74566    0.92697    0.40746   1.00
H1       0.48355    0.79925    0.47068   1.00
O3       0.64609    0.93747    0.41788   1.00
O3       0.51656    0.84715    0.43536   1.00
Si1      0.67707    1.01488    0.42661   1.00
Si1      0.45996    0.78470    0.42152   1.00
C6       0.68714    1.05560    0.40300   1.00
C6       0.61269    1.01652    0.44121   1.00
C6       0.75613    1.04574    0.43908   1.00
C6       0.47434    0.71686    0.41545   1.00
C6       0.38513    0.75348    0.43599   1.00
C6       0.44903    0.82092    0.39920   1.00
C6       0.72237    1.03595    0.38591   1.00
H2       0.63439    1.03479    0.39804   1.00
C6       0.72017    1.13514    0.40156   1.00
H2       0.56652    0.97465    0.43460   1.00
C6       0.60905    1.00032    0.46440   1.00
C6       0.60364    1.08054    0.43976   1.00
H2       0.78458    1.03260    0.42837   1.00
C6       0.80013    1.12467    0.44244   1.00
C6       0.75893    1.01440    0.46009   1.00
C6       0.54188    0.73426    0.40417   1.00
C6       0.46364    0.66304    0.43211   1.00
H2       0.43370    0.68758    0.40456   1.00
H2       0.39433    0.72917    0.44894   1.00
C6       0.37024    0.80837    0.44527   1.00
C6       0.31714    0.69800    0.42603   1.00
H2       0.41442    0.83904    0.40370   1.00
C6       0.51362    0.88527    0.39091   1.00
C6       0.41494    0.77308    0.38050   1.00
H2       0.69596    0.98091    0.38340   1.00
H2       0.77539    1.05263    0.38975   1.00
H2       0.72191    1.05923    0.37143   1.00
H2       0.69696    1.14844    0.38914   1.00
H2       0.71373    1.15771    0.41533   1.00
H2       0.77475    1.16047    0.39834   1.00
H2       0.55969    0.98872    0.47068   1.00
H2       0.61434    0.95593    0.46738   1.00
H2       0.64843    1.04368    0.47281   1.00
H2       0.59549    1.09062    0.42413   1.00
H2       0.55891    1.07298    0.44829   1.00
H2       0.64799    1.12576    0.44591   1.00
H2       0.77084    1.14429    0.45018   1.00
H2       0.84578    1.13859    0.45149   1.00
H2       0.81898    1.15155    0.42816   1.00
H2       0.75009    1.03997    0.47278   1.00
H2       0.72216    0.96055    0.46145   1.00
H2       0.80932    1.01992    0.46232   1.00
H2       0.58436    0.75044    0.41467   1.00
H2       0.53624    0.68940    0.39619   1.00
H2       0.55597    0.77417    0.39288   1.00
H2       0.46499    0.61959    0.42536   1.00
H2       0.50312    0.68395    0.44369   1.00
H2       0.41422    0.64229    0.43956   1.00
H2       0.32981    0.78523    0.45666   1.00
H2       0.41513    0.84873    0.45293   1.00
H2       0.35403    0.83192    0.43376   1.00
H2       0.32216    0.65629    0.41963   1.00
H2       0.27645    0.67559    0.43737   1.00
H2       0.30042    0.71967    0.41406   1.00
H2       0.55361    0.87431    0.38656   1.00
H2       0.50166    0.90685    0.37778   1.00
H2       0.53426    0.92460    0.40249   1.00
H2       0.40159    0.79884    0.36887   1.00
H2       0.44914    0.75788    0.37356   1.00
H2       0.36784    0.72704    0.38468   1.00
C4       0.17166    -0.13976   0.44950   1.00
C4       0.19864    -0.16973   0.46304   1.00
C3       0.12499    -0.11850   0.45555   1.00
C3       0.17699    -0.18710   0.48347   1.00
C3       0.19127    -0.13128   0.42866   1.00
C3       0.25032    -0.18320   0.45595   1.00
C2       0.11681    -0.08271   0.42100   1.00
C2       0.25461    -0.23163   0.48932   1.00
C3       0.09800    -0.09111   0.44168   1.00
C3       0.20463    -0.21661   0.49631   1.00
C3       0.16445    -0.10237   0.41499   1.00
C3       0.27540    -0.21563   0.46887   1.00
H1       0.10943    -0.12206   0.47021   1.00
H1       0.14020    -0.17922   0.48959   1.00
C5       0.23777    -0.15146   0.42162   1.00
C5       0.27629    -0.16485   0.43597   1.00
H1       0.06406    -0.07709   0.44690   1.00
H1       0.18744    -0.22754   0.51100   1.00
H1       0.18044    -0.09485   0.40020   1.00
H1       0.30917    -0.22888   0.46318   1.00
O3       0.24775    -0.15385   0.40109   1.00
O3       0.33494    -0.16482   0.43013   1.00
Si1      0.20304    -0.22521   0.38871   1.00
Si1      0.40873    -0.09754   0.43481   1.00
C6       0.22997    -0.19168   0.36411   1.00
C6       0.23427    -0.27985   0.39553   1.00
C6       0.11417    -0.26037   0.39158   1.00
C6       0.41010    -0.02885   0.44798   1.00
C6       0.45092    -0.13040   0.44924   1.00
C6       0.45169    -0.06922   0.41147   1.00
C6       0.22851    -0.12468   0.35918   1.00
H2       0.28390    -0.17672   0.36438   1.00
C6       0.19968    -0.23792   0.34482   1.00
H2       0.28645    -0.24363   0.40010   1.00
C6       0.20116    -0.32860   0.41407   1.00
C6       0.24063    -0.32509   0.37869   1.00
H2       0.10790    -0.21618   0.38890   1.00
C6       0.06691    -0.31580   0.37583   1.00
C6       0.07994    -0.29086   0.41265   1.00
C6       0.36978    0.00411    0.43872   1.00
C6       0.39559    -0.03506   0.47135   1.00
H2       0.46372    0.01055    0.44694   1.00
H2       0.42376    -0.14374   0.46368   1.00
C6       0.44558    -0.19804   0.44125   1.00
C6       0.52777    -0.08103   0.45432   1.00
H2       0.47286    -0.10254   0.40880   1.00
C6       0.40642    -0.07895   0.39254   1.00
C6       0.51330    0.00544    0.41021   1.00
H2       0.25810    -0.08454   0.37020   1.00
H2       0.17638    -0.13367   0.35922   1.00
H2       0.25077    -0.10450   0.34430   1.00
H2       0.23852    -0.22137   0.33296   1.00
H2       0.18183    -0.29142   0.34784   1.00
H2       0.15702    -0.23468   0.33832   1.00
H2       0.23370    -0.34845   0.41933   1.00
H2       0.19441    -0.30257   0.42697   1.00
H2       0.15176    -0.37221   0.41007   1.00
H2       0.27200    -0.29421   0.36606   1.00
H2       0.26541    -0.35252   0.38453   1.00
H2       0.19053    -0.36300   0.37295   1.00
H2       0.07828    -0.35727   0.37503   1.00
H2       0.01285    -0.33802   0.37962   1.00
H2       0.07223    -0.29401   0.36081   1.00
H2       0.06568    -0.34437   0.41417   1.00
H2       0.11206    -0.26412   0.42550   1.00
H2       0.03324    -0.28823   0.41431   1.00
H2       0.31597    -0.02427   0.44277   1.00
H2       0.38991    0.05603    0.44443   1.00
H2       0.37362    0.00752    0.42225   1.00
H2       0.40771    0.01435    0.47772   1.00
H2       0.34232    -0.07042   0.47484   1.00
H2       0.42681    -0.05128   0.47958   1.00
H2       0.46301    -0.22043   0.45285   1.00
H2       0.39289    -0.23617   0.43767   1.00
H2       0.47643    -0.18961   0.42769   1.00
H2       0.53612    -0.03287   0.46061   1.00
H2       0.54546    -0.10388   0.46570   1.00
H2       0.55991    -0.07016   0.44091   1.00
H2       0.38004    -0.04990   0.39372   1.00
H2       0.43637    -0.06386   0.37857   1.00
H2       0.36811    -0.13238   0.39093   1.00
H2       0.54181    0.01329    0.39612   1.00
H2       0.49622    0.04282    0.41060   1.00
H2       0.54925    0.01670    0.42261   1.00
C4       0.31602    0.13931    0.05217   1.00
C4       0.37188    0.16809    0.03823   1.00
C3       0.28031    0.06930    0.05766   1.00
C3       0.39354    0.12878    0.02701   1.00
C3       0.29350    0.18224    0.06097   1.00
C3       0.40867    0.24018    0.03524   1.00
C2       0.20141    0.08436    0.07970   1.00
C2       0.48435    0.22998    0.00998   1.00
C3       0.22434    0.04247    0.07095   1.00
C3       0.44862    0.15889    0.01342   1.00
C3       0.23774    0.15443    0.07464   1.00
C3       0.46214    0.26919    0.02083   1.00
H1       0.29406    0.03580    0.05222   1.00
H1       0.36968    0.07707    0.02829   1.00
C5       0.32700    0.25272    0.05613   1.00
C5       0.39161    0.28291    0.04648   1.00
H1       0.20019    -0.00866   0.07425   1.00
H1       0.46239    0.12799    0.00586   1.00
H1       0.22336    0.18620    0.08127   1.00
H1       0.48510    0.32031    0.01791   1.00
O3       0.29841    0.29142    0.06189   1.00
O3       0.43439    0.35280    0.04685   1.00
Si1      0.24877    0.30216    0.04620   1.00
Si1      0.49714    0.38539    0.06310   1.00
C6       0.22094    0.34295    0.06339   1.00
C6       0.30095    0.35875    0.02711   1.00
C6       0.17984    0.22474    0.03730   1.00
C6       0.50913    0.32916    0.07890   1.00
C6       0.56915    0.43089    0.04762   1.00
C6       0.48735    0.44467    0.07792   1.00
C6       0.19704    0.30822    0.08469   1.00
H2       0.26778    0.39107    0.06626   1.00
C6       0.16661    0.36314    0.05695   1.00
H2       0.34995    0.38687    0.03486   1.00
C6       0.31491    0.32825    0.00761   1.00
C6       0.28451    0.41412    0.01919   1.00
H2       0.16026    0.19547    0.05130   1.00
C6       0.11841    0.22774    0.02745   1.00
C6       0.19380    0.17900    0.02236   1.00
C6       0.44842    0.27889    0.09267   1.00
C6       0.54055    0.28704    0.06980   1.00
H2       0.54836    0.36422    0.08938   1.00
H2       0.57382    0.39113    0.03969   1.00
C6       0.56295    0.47555    0.03054   1.00
C6       0.63903    0.47679    0.05840   1.00
H2       0.50843    0.49032    0.06847   1.00
C6       0.41269    0.42692    0.08247   1.00
C6       0.52645    0.46768    0.09861   1.00
H2       0.23656    0.30164    0.09207   1.00
H2       0.15122    0.25808    0.08342   1.00
H2       0.18568    0.33930    0.09490   1.00
H2       0.17678    0.41006    0.06466   1.00
H2       0.16660    0.37185    0.04074   1.00
H2       0.11485    0.32434    0.06115   1.00
H2       0.35843    0.36773    -0.00079   1.00
H2       0.32752    0.28895    0.01120   1.00
H2       0.27101    0.30673    -0.00256   1.00
H2       0.28354    0.44564    0.03156   1.00
H2       0.32353    0.44907    0.00858   1.00
H2       0.23559    0.39073    0.01128   1.00
H2       0.13561    0.26536    0.01525   1.00
H2       0.08044    0.17849    0.02112   1.00
H2       0.09097    0.24006    0.03862   1.00
H2       0.19430    0.19347    0.00654   1.00
H2       0.24174    0.18064    0.02514   1.00
H2       0.15365    0.12566    0.02381   1.00
H2       0.41241    0.23319    0.08444   1.00
H2       0.46707    0.26219    0.10549   1.00
H2       0.42064    0.30236    0.09896   1.00
H2       0.55361    0.26245    0.08189   1.00
H2       0.50539    0.24678    0.05970   1.00
H2       0.58768    0.31909    0.06152   1.00
H2       0.60493    0.49222    0.01971   1.00
H2       0.51572    0.44673    0.02192   1.00
H2       0.56426    0.52098    0.03664   1.00
H2       0.64872    0.44905    0.07025   1.00
H2       0.68094    0.49430    0.04751   1.00
H2       0.64131    0.52195    0.06514   1.00
H2       0.38494    0.38018    0.09130   1.00
H2       0.41108    0.46799    0.09068   1.00
H2       0.38535    0.41986    0.06834   1.00
H2       0.52474    0.51165    0.10477   1.00
H2       0.50407    0.42694    0.10989   1.00
H2       0.58013    0.48311    0.09689   1.00
C4       0.82345    0.68513    0.05175   1.00
C4       0.79666    0.62914    0.03786   1.00
C3       0.80140    0.73378    0.05252   1.00
C3       0.74976    0.61976    0.02217   1.00
C3       0.87600    0.69408    0.06550   1.00
C3       0.81737    0.57928    0.03962   1.00
C2       0.88257    0.79887    0.07959   1.00
C2       0.74601    0.51537    0.01009   1.00
C3       0.83037    0.78931    0.06597   1.00
C3       0.72462    0.56412    0.00878   1.00
C3       0.90368    0.74972    0.07921   1.00
C3       0.79368    0.52520    0.02544   1.00
H1       0.76347    0.73017    0.04338   1.00
H1       0.73281    0.65330    0.01993   1.00
C5       0.90036    0.64724    0.06552   1.00
C5       0.86202    0.58389    0.05539   1.00
H1       0.81271    0.82314    0.06574   1.00
H1       0.69035    0.55963    -0.00216   1.00
H1       0.94001    0.75441    0.08937   1.00
H1       0.81235    0.49242    0.02611   1.00
O3       0.95831    0.66213    0.07630   1.00
O3       0.87196    0.52983    0.05985   1.00
Si1      1.03246    0.69995    0.06502   1.00
Si1      0.81827    0.46990    0.07496   1.00
C6       1.08277    0.71474    0.08694   1.00
C6       1.03596    0.63948    0.04899   1.00
C6       1.05111    0.77727    0.05314   1.00
C6       0.74801    0.47559    0.08422   1.00
C6       0.78865    0.39580    0.06023   1.00
C6       0.86576    0.46446    0.09530   1.00
C6       1.06466    0.74588    0.10554   1.00
H2       1.06883    0.66304    0.09154   1.00
C6       1.16272    0.75500    0.08571   1.00
H2       0.99989    0.59153    0.05629   1.00
C6       1.01072    0.63359    0.02660   1.00
C6       1.10446    0.63852    0.04747   1.00
H2       1.03818    0.80266    0.06499   1.00
C6       1.12738    0.82761    0.04744   1.00
C6       1.01013    0.77570    0.03371   1.00
C6       0.76281    0.54117    0.09622   1.00
C6       0.68670    0.45887    0.06976   1.00
H2       0.72609    0.43440    0.09535   1.00
H2       0.75734    0.40125    0.04863   1.00
C6       0.84423    0.38803    0.04832   1.00
C6       0.74208    0.32591    0.07092   1.00
H2       0.88692    0.43405    0.08927   1.00
C6       0.92885    0.53267    0.10225   1.00
C6       0.82662    0.42743    0.11512   1.00
H2       1.01105    0.71478    0.10979   1.00
H2       1.07467    0.79738    0.10224   1.00
H2       1.09450    0.74854    0.11890   1.00
H2       1.18392    0.73514    0.09693   1.00
H2       1.18188    0.75125    0.07094   1.00
H2       1.18425    0.80916    0.08907   1.00
H2       1.00181    0.58585    0.01973   1.00
H2       0.96260    0.63329    0.02566   1.00
H2       1.04844    0.67532    0.01729   1.00
H2       1.12179    0.63247    0.06237   1.00
H2       1.09840    0.59553    0.03832   1.00
H2       1.14441    0.68518    0.04045   1.00
H2       1.14830    0.80227    0.03824   1.00
H2       1.13338    0.87175    0.03891   1.00
H2       1.15872    0.84876    0.06089   1.00
H2       1.03309    0.77008    0.01982   1.00
H2       0.95747    0.73494    0.03382   1.00
H2       1.00936    0.82348    0.03241   1.00
H2       0.77098    0.58256    0.08608   1.00
H2       0.71955    0.53085    0.10593   1.00
H2       0.80719    0.55931    0.10603   1.00
H2       0.64366    0.45523    0.07834   1.00
H2       0.69974    0.49798    0.05828   1.00
H2       0.66778    0.40997    0.06211   1.00
H2       0.82033    0.34717    0.03709   1.00
H2       0.87847    0.43458    0.04003   1.00
H2       0.87500    0.37589    0.05836   1.00
H2       0.70031    0.32591    0.07918   1.00
H2       0.71898    0.28490    0.05970   1.00
H2       0.77112    0.31308    0.08149   1.00
H2       0.91451    0.56896    0.10796   1.00
H2       0.95769    0.52433    0.11408   1.00
H2       0.96328    0.55629    0.08955   1.00
H2       0.85943    0.41823    0.12526   1.00
H2       0.80948    0.45786    0.12345   1.00
H2       0.78225    0.37784    0.11187   1.00
C4       -0.13977   0.17165    0.05049   1.00
C4       -0.16974   0.19864    0.03696   1.00
C3       -0.11858   0.12492    0.04446   1.00
C3       -0.18718   0.17692    0.01654   1.00
C3       -0.13120   0.19134    0.07134   1.00
C3       -0.18312   0.25038    0.04404   1.00
C2       -0.08271   0.11680    0.07900   1.00
C2       -0.23163   0.25462    0.01068   1.00
C3       -0.09120   0.09793    0.05832   1.00
C3       -0.21669   0.20457    0.00369   1.00
C3       -0.10229   0.16451    0.08501   1.00
C3       -0.21555   0.27546    0.03112   1.00
H1       -0.12221   0.10930    0.02980   1.00
H1       -0.17937   0.14008    0.01042   1.00
C5       -0.15130   0.23791    0.07836   1.00
C5       -0.16469   0.27641    0.06401   1.00
H1       -0.07724   0.06394    0.05311   1.00
H1       -0.22768   0.18733    -0.01099   1.00
H1       -0.09471   0.18055    0.09979   1.00
H1       -0.22874   0.30929    0.03681   1.00
O3       -0.15361   0.24795    0.09890   1.00
O3       -0.16457   0.33511    0.06984   1.00
Si1      -0.22494   0.20334    0.11130   1.00
Si1      -0.09727   0.40885    0.06513   1.00
C6       -0.19132   0.23033    0.13589   1.00
C6       -0.27954   0.23461    0.10449   1.00
C6       -0.26018   0.11444    0.10845   1.00
C6       -0.02865   0.41011    0.05195   1.00
C6       -0.13012   0.45105    0.05070   1.00
C6       -0.06885   0.45188    0.08847   1.00
C6       -0.12434   0.22882    0.14080   1.00
H2       -0.17632   0.28427    0.13561   1.00
C6       -0.23750   0.20013    0.15519   1.00
H2       -0.24330   0.28677    0.09990   1.00
C6       -0.32836   0.20148    0.08596   1.00
C6       -0.32470   0.24108    0.12133   1.00
H2       -0.21602   0.10814    0.11113   1.00
C6       -0.31559   0.06727    0.12422   1.00
C6       -0.29076   0.08016    0.08740   1.00
C6       0.00427    0.36977    0.06122   1.00
C6       -0.03496   0.39551    0.02859   1.00
H2       0.01078    0.46371    0.05298   1.00
H2       -0.14352   0.42384    0.03627   1.00
C6       -0.19770   0.44581    0.05870   1.00
C6       -0.08071   0.52787    0.04560   1.00
H2       -0.10212   0.47310    0.09114   1.00
C6       -0.07856   0.40666    0.10740   1.00
C6       0.00584    0.51345    0.08970   1.00
H2       -0.08423   0.25834    0.12978   1.00
H2       -0.13338   0.17666    0.14077   1.00
H2       -0.10411   0.25111    0.15568   1.00
H2       -0.22088   0.23902    0.16704   1.00
H2       -0.29100   0.18232    0.15219   1.00
H2       -0.23429   0.15747    0.16170   1.00
H2       -0.34819   0.23404    0.08070   1.00
H2       -0.30239   0.19466    0.07305   1.00
H2       -0.37199   0.15212    0.08998   1.00
H2       -0.29376   0.27248    0.13395   1.00
H2       -0.35210   0.26589    0.11550   1.00
H2       -0.36262   0.19102    0.12709   1.00
H2       -0.35702   0.07869    0.12503   1.00
H2       -0.33786   0.01319    0.12045   1.00
H2       -0.29375   0.07263    0.13924   1.00
H2       -0.34427   0.06595    0.08589   1.00
H2       -0.26404   0.11223    0.07454   1.00
H2       -0.28819   0.03343    0.08574   1.00
H2       -0.02416   0.31594    0.05718   1.00
H2       0.05617    0.38983    0.05549   1.00
H2       0.00773    0.37366    0.07768   1.00
H2       0.01442    0.40757    0.02220   1.00
H2       -0.07036   0.34225    0.02512   1.00
H2       -0.05116   0.42674    0.02035   1.00
H2       -0.22010   0.46323    0.04711   1.00
H2       -0.23585   0.39314    0.06230   1.00
H2       -0.18920   0.47671    0.07226   1.00
H2       -0.03259   0.53616    0.03930   1.00
H2       -0.10357   0.54556    0.03422   1.00
H2       -0.06977   0.56006    0.05900   1.00
H2       -0.04956   0.38023    0.10622   1.00
H2       -0.06340   0.43665    0.12137   1.00
H2       -0.13200   0.36839    0.10903   1.00
H2       0.01377    0.54201    0.10378   1.00
H2       0.04318    0.49632    0.08930   1.00
H2       0.01709    0.54936    0.07729   1.00
C4       0.52828    1.02113    0.88411   1.00
C4       0.49912    0.96371    0.87074   1.00
C3       0.59922    1.06070    0.88818   1.00
C3       0.53708    0.93641    0.86158   1.00
C3       0.48444    1.03986    0.89429   1.00
C3       0.42812    0.93141    0.86610   1.00
C2       0.58291    1.13442    0.91211   1.00
C2       0.43609    0.84648    0.84423   1.00
C3       0.62578    1.11555    0.90188   1.00
C3       0.50660    0.87981    0.84854   1.00
C3       0.51238    1.09615    0.90776   1.00
C3       0.39784    0.87267    0.85362   1.00
H1       0.63369    1.05099    0.88127   1.00
H1       0.58790    0.95657    0.86421   1.00
C5       0.41302    1.00243    0.89088   1.00
C5       0.38754    0.95743    0.87407   1.00
H1       0.67746    1.14201    0.90434   1.00
H1       0.53669    0.86266    0.84221   1.00
H1       0.48052    1.11016    0.91453   1.00
H1       0.34620    0.84756    0.85149   1.00
O3       0.37004    1.01324    0.90315   1.00
O3       0.32273    0.93583    0.86670   1.00
Si1      0.33585    0.96536    0.92310   1.00
Si1      0.31409    0.97266    0.84655   1.00
C6       0.29954    1.01184    0.93347   1.00
C6       0.27238    0.88454    0.91448   1.00
C6       0.39647    0.96441    0.93974   1.00
C6       0.38859    1.03667    0.83456   1.00
C6       0.26947    0.90431    0.82973   1.00
C6       0.26022    1.00494    0.85315   1.00
C6       0.34759    1.09112    0.93453   1.00
H2       0.26070    1.00358    0.92224   1.00
C6       0.26135    0.99130    0.95440   1.00
H2       0.25901    0.89689    0.89981   1.00
C6       0.29296    0.82933    0.91006   1.00
C6       0.20385    0.84624    0.92657   1.00
H2       0.43407    1.01862    0.94109   1.00
C6       0.37243    0.93831    0.96189   1.00
C6       0.43675    0.92774    0.93310   1.00
C6       0.43943    1.09973    0.84747   1.00
C6       0.43328    1.01590    0.82157   1.00
H2       0.36780    1.05680    0.82334   1.00
H2       0.30673    0.88926    0.82560   1.00
C6       0.20755    0.83874    0.83888   1.00
C6       0.24403    0.91954    0.80940   1.00
H2       0.20899    0.96067    0.85217   1.00
C6       0.26638    1.03140    0.87531   1.00
C6       0.26002    1.06072    0.83915   1.00
H2       0.36880    1.11247    0.91966   1.00
H2       0.39002    1.10490    0.94497   1.00
H2       0.31985    1.11639    0.93965   1.00
H2       0.21953    1.00233    0.95437   1.00
H2       0.23970    0.93747    0.95787   1.00
H2       0.29462    1.02005    0.96702   1.00
H2       0.25397    0.78786    0.90091   1.00
H2       0.34026    0.84996    0.90150   1.00
H2       0.29856    0.80701    0.92410   1.00
H2       0.17955    0.87725    0.92796   1.00
H2       0.16701    0.79940    0.91882   1.00
H2       0.21207    0.83209    0.94171   1.00
H2       0.32681    0.88785    0.96185   1.00
H2       0.41176    0.93502    0.97064   1.00
H2       0.36191    0.97322    0.97033   1.00
H2       0.40938    0.87357    0.93690   1.00
H2       0.44753    0.93147    0.91700   1.00
H2       0.48591    0.95050    0.94092   1.00
H2       0.47395    1.08926    0.85623   1.00
H2       0.47104    1.14311    0.83762   1.00
H2       0.41324    1.11619    0.85790   1.00
H2       0.47151    1.05958    0.81292   1.00
H2       0.46076    0.99794    0.83089   1.00
H2       0.40307    0.97645    0.81049   1.00
H2       0.19065    0.79580    0.82840   1.00
H2       0.22139    0.82365    0.85305   1.00
H2       0.16416    0.84591    0.84188   1.00
H2       0.28470    0.96362    0.80159   1.00
H2       0.22617    0.87616    0.79904   1.00
H2       0.20162    0.92869    0.81196   1.00
H2       0.31683    1.07461    0.87849   1.00
H2       0.22861    1.04672    0.87851   1.00
H2       0.25716    0.99103    0.88593   1.00
H2       0.21758    1.06878    0.84299   1.00
H2       0.30713    1.10962    0.84074   1.00
H2       0.25394    1.04593    0.82322   1.00
C4       -0.01542   0.50621    0.88621   1.00
C4       0.04057    0.53301    0.87233   1.00
C3       -0.01734   0.47200    0.90446   1.00
C3       0.09732    0.52287    0.87435   1.00
C3       -0.07346   0.51278    0.88160   1.00
C3       0.04053    0.57239    0.85543   1.00
C2       -0.13197   0.45048    0.91301   1.00
C2       0.15107    0.58760    0.84333   1.00
C3       -0.07413   0.44455    0.91744   1.00
C3       0.15137    0.54993    0.86037   1.00
C3       -0.12973   0.48586    0.89508   1.00
C3       0.09406    0.59673    0.84104   1.00
H1       0.02257    0.46623    0.90890   1.00
H1       0.10086    0.49517    0.88598   1.00
C5       -0.07481   0.54645    0.86360   1.00
C5       -0.01313   0.58681    0.85285   1.00
H1       -0.07283   0.41990    0.93035   1.00
H1       0.19135    0.54146    0.86270   1.00
H1       -0.17020   0.49261    0.89186   1.00
H1       0.09113    0.62108    0.82835   1.00
O3       -0.13478   0.54278    0.85752   1.00
O3       -0.00771   0.63542    0.83912   1.00
Si1      -0.18501   0.48357    0.84161   1.00
Si1      0.03057    0.71520    0.84612   1.00
C6       -0.25414   0.49870    0.84319   1.00
C6       -0.14603   0.50595    0.81753   1.00
C6       -0.20871   0.40036    0.84978   1.00
C6       0.06598    0.73595    0.87076   1.00
C6       0.09576    0.75553    0.82807   1.00
C6       -0.02769   0.74441    0.84264   1.00
C6       -0.27629   0.50598    0.86516   1.00
H2       -0.23288   0.54929    0.83641   1.00
C6       -0.32245   0.45252    0.83148   1.00
H2       -0.11397   0.56117    0.81888   1.00
C6       -0.09693   0.47915    0.81130   1.00
C6       -0.19195   0.49392    0.79848   1.00
H2       -0.22370   0.40078    0.86551   1.00
C6       -0.27195   0.33962    0.83924   1.00
C6       -0.15386   0.37718    0.85027   1.00
C6       0.01768    0.70035    0.88922   1.00
C6       0.13376    0.73579    0.87539   1.00
H2       0.08077    0.78968    0.87201   1.00
H2       0.13117    0.73766    0.83175   1.00
C6       0.07485    0.73450    0.80543   1.00
C6       0.13818    0.83520    0.82848   1.00
H2       -0.02441   0.75592    0.82647   1.00
C6       -0.10428   0.69140    0.84646   1.00
C6       -0.01358   0.81115    0.85389   1.00
H2       -0.23359   0.54561    0.87375   1.00
H2       -0.29641   0.45819    0.87359   1.00
H2       -0.31570   0.52041    0.86478   1.00
H2       -0.34536   0.48283    0.82670   1.00
H2       -0.31531   0.42929    0.81797   1.00
H2       -0.36031   0.41138    0.84093   1.00
H2       -0.06552   0.50774    0.79832   1.00
H2       -0.06171   0.48524    0.82342   1.00
H2       -0.12540   0.42548    0.80695   1.00
H2       -0.22162   0.51960    0.80001   1.00
H2       -0.16116   0.51466    0.78476   1.00
H2       -0.22666   0.43957    0.79593   1.00
H2       -0.26607   0.34214    0.82277   1.00
H2       -0.27992   0.29007    0.84425   1.00
H2       -0.31880   0.33922    0.84309   1.00
H2       -0.14992   0.35626    0.83575   1.00
H2       -0.10315   0.41785    0.85411   1.00
H2       -0.16776   0.33716    0.86164   1.00
H2       0.01122    0.65011    0.89215   1.00
H2       0.03891    0.73048    0.90302   1.00
H2       -0.03256   0.69463    0.88703   1.00
H2       0.15405    0.75878    0.89021   1.00
H2       0.12640    0.68451    0.87579   1.00
H2       0.17362    0.76558    0.86437   1.00
H2       0.12021    0.75297    0.79588   1.00
H2       0.04587    0.67909    0.80371   1.00
H2       0.04413    0.75533    0.79944   1.00
H2       0.15677    0.85457    0.84369   1.00
H2       0.18300    0.85370    0.81868   1.00
H2       0.10822    0.85767    0.82304   1.00
H2       -0.11391   0.67366    0.86213   1.00
H2       -0.13726   0.71233    0.84283   1.00
H2       -0.11987   0.64730    0.83677   1.00
H2       -0.04686   0.82948    0.84814   1.00
H2       -0.02270   0.80262    0.87019   1.00
H2       0.03868    0.85230    0.85164   1.00
C4       0.49486    0.47925    0.88615   1.00
C4       0.46791    0.50819    0.87223   1.00
C3       0.54013    0.51649    0.90220   1.00
C3       0.48829    0.57855    0.87180   1.00
C3       0.47672    0.40950    0.88386   1.00
C3       0.41759    0.46488    0.85788   1.00
C2       0.54982    0.41796    0.91305   1.00
C2       0.41210    0.56304    0.84329   1.00
C3       0.56717    0.48684    0.91521   1.00
C3       0.46072    0.60515    0.85786   1.00
C3       0.50355    0.38019    0.89739   1.00
C3       0.39261    0.49318    0.84340   1.00
H1       0.55459    0.56617    0.90494   1.00
H1       0.52408    0.61262    0.88152   1.00
C5       0.43166    0.36940    0.86814   1.00
C5       0.39288    0.39371    0.85791   1.00
H1       0.60007    0.51641    0.92645   1.00
H1       0.47695    0.65634    0.85838   1.00
H1       0.48860    0.32959    0.89591   1.00
H1       0.35989    0.46225    0.83241   1.00
O3       0.42326    0.30608    0.86386   1.00
O3       0.33530    0.34943    0.84705   1.00
Si1      0.46987    0.29824    0.84634   1.00
Si1      0.26055    0.32193    0.85739   1.00
C6       0.44420    0.21194    0.85102   1.00
C6       0.43971    0.30825    0.82267   1.00
C6       0.55831    0.35148    0.85030   1.00
C6       0.25680    0.35260    0.88173   1.00
C6       0.21856    0.34655    0.83985   1.00
C6       0.21907    0.23219    0.85754   1.00
C6       0.44453    0.19225    0.87381   1.00
H2       0.39054    0.18601    0.84661   1.00
C6       0.47648    0.17520    0.83898   1.00
H2       0.38701    0.29347    0.82620   1.00
C6       0.47223    0.38151    0.81338   1.00
C6       0.43556    0.26123    0.80468   1.00
H2       0.56373    0.34259    0.86631   1.00
C6       0.60732    0.33370    0.83840   1.00
C6       0.59136    0.43078    0.84766   1.00
C6       0.29658    0.34188    0.89940   1.00
C6       0.26968    0.42697    0.88410   1.00
H2       0.20300    0.32077    0.88563   1.00
H2       0.24472    0.40195    0.84129   1.00
C6       0.22585    0.33249    0.81699   1.00
C6       0.14115    0.32044    0.84355   1.00
H2       0.19904    0.21772    0.84217   1.00
C6       0.26533    0.20009    0.86068   1.00
C6       0.15661    0.19268    0.87207   1.00
H2       0.41364    0.20617    0.88321   1.00
H2       0.49627    0.21767    0.87997   1.00
H2       0.42311    0.13725    0.87554   1.00
H2       0.43853    0.12142    0.83678   1.00
H2       0.49509    0.19722    0.82408   1.00
H2       0.51904    0.17629    0.84711   1.00
H2       0.44013    0.38315    0.80125   1.00
H2       0.47745    0.41921    0.82455   1.00
H2       0.52229    0.39730    0.80688   1.00
H2       0.40474    0.20740    0.80865   1.00
H2       0.41125    0.26889    0.79138   1.00
H2       0.48631    0.27183    0.80011   1.00
H2       0.59704    0.32993    0.82213   1.00
H2       0.66100    0.37200    0.84069   1.00
H2       0.60261    0.28609    0.84368   1.00
H2       0.60652    0.44685    0.83200   1.00
H2       0.55814    0.45003    0.85218   1.00
H2       0.63737    0.45722    0.85697   1.00
H2       0.35013    0.38142    0.89955   1.00
H2       0.27516    0.34396    0.91407   1.00
H2       0.29384    0.29257    0.89853   1.00
H2       0.25618    0.43494    0.89939   1.00
H2       0.32287    0.46529    0.88173   1.00
H2       0.23859    0.43744    0.87370   1.00
H2       0.20831    0.35964    0.80719   1.00
H2       0.27903    0.35053    0.81298   1.00
H2       0.19610    0.27835    0.81329   1.00
H2       0.13142    0.33003    0.85906   1.00
H2       0.12337    0.34688    0.83353   1.00
H2       0.11006    0.26589    0.84047   1.00
H2       0.29071    0.21315    0.87539   1.00
H2       0.23636    0.14457    0.85938   1.00
H2       0.30448    0.21846    0.84905   1.00
H2       0.12922    0.13818    0.86855   1.00
H2       0.17266    0.19833    0.88792   1.00
H2       0.11997    0.21030    0.87058   1.00
C4       0.35360    0.19540    0.28224   1.00
C4       0.29621    0.16590    0.29562   1.00
C3       0.38093    0.26150    0.27368   1.00
C3       0.25670    0.19691    0.30029   1.00
C3       0.38519    0.15668    0.27676   1.00
C3       0.27681    0.10191    0.30499   1.00
C2       0.46765    0.25008    0.25451   1.00
C2       0.17993    0.10224    0.32247   1.00
C3       0.43612    0.28798    0.26011   1.00
C3       0.20055    0.16630    0.31350   1.00
C3       0.44163    0.18481    0.26335   1.00
C3       0.21832    0.07056    0.31756   1.00
H1       0.36168    0.29244    0.27710   1.00
H1       0.26728    0.24244    0.29415   1.00
C5       0.36039    0.09025    0.28480   1.00
C5       0.31542    0.06920    0.30164   1.00
H1       0.45339    0.33590    0.25428   1.00
H1       0.17422    0.19136    0.31646   1.00
H1       0.46497    0.15721    0.26000   1.00
H1       0.20255    0.02279    0.32311   1.00
O3       0.38330    0.04891    0.27695   1.00
O3       0.30604    0.01485    0.31351   1.00
Si1      0.34064    -0.00478   0.25881   1.00
Si1      0.34647    0.03028    0.33508   1.00
C6       0.40088    -0.03049   0.25351   1.00
C6       0.26600    -0.07182   0.26967   1.00
C6       0.32716    0.03428    0.23751   1.00
C6       0.39822    0.11618    0.34264   1.00
C6       0.28037    -0.01247   0.35273   1.00
C6       0.39487    -0.01103   0.33441   1.00
C6       0.47669    0.02839    0.25123   1.00
H2       0.39976    -0.05734   0.26739   1.00
C6       0.38918    -0.08141   0.23574   1.00
H2       0.28123    -0.07006   0.28546   1.00
C6       0.20039    -0.06537   0.27024   1.00
C6       0.24103    -0.14646   0.26241   1.00
H2       0.37796    0.07808    0.23495   1.00
C6       0.30621    -0.00705   0.21717   1.00
C6       0.27709    0.06322    0.23922   1.00
C6       0.45674    0.16543    0.32807   1.00
C6       0.36395    0.15698    0.35070   1.00
H2       0.42401    0.11137    0.35600   1.00
H2       0.25489    0.01761    0.35303   1.00
C6       0.22374    -0.08637   0.34678   1.00
C6       0.30101    -0.01625   0.37512   1.00
H2       0.35814    -0.06396   0.33813   1.00
C6       0.42450    -0.01423   0.31336   1.00
C6       0.45468    0.01199    0.34998   1.00
H2       0.49377    0.06131    0.26459   1.00
H2       0.48296    0.06012    0.23800   1.00
H2       0.51124    0.00811    0.24952   1.00
H2       0.41091    -0.11349   0.23972   1.00
H2       0.33557    -0.11508   0.23230   1.00
H2       0.41416    -0.05508   0.22172   1.00
H2       0.16312    -0.10194   0.28093   1.00
H2       0.21124    -0.01514   0.27525   1.00
H2       0.17597    -0.07563   0.25537   1.00
H2       0.28072    -0.15996   0.26423   1.00
H2       0.19752    -0.18351   0.27138   1.00
H2       0.22506    -0.15328   0.24654   1.00
H2       0.26150    -0.05748   0.21928   1.00
H2       0.29435    0.01901    0.20523   1.00
H2       0.34766    -0.01285   0.21113   1.00
H2       0.22445    0.02449    0.23593   1.00
H2       0.27717    0.08393    0.25403   1.00
H2       0.29139    0.10453    0.22828   1.00
H2       0.43813    0.18570    0.31628   1.00
H2       0.49601    0.20908    0.33648   1.00
H2       0.48179    0.14069    0.32078   1.00
H2       0.40213    0.20541    0.35739   1.00
H2       0.33881    0.16917    0.33870   1.00
H2       0.32669    0.12951    0.36259   1.00
H2       0.17964    -0.10402   0.35683   1.00
H2       0.20534    -0.08809   0.33134   1.00
H2       0.24188    -0.12274   0.34781   1.00
H2       0.33915    0.03376    0.38080   1.00
H2       0.25666    -0.03488   0.38512   1.00
H2       0.32106    -0.05101   0.37657   1.00
H2       0.46046    0.03632    0.30754   1.00
H2       0.45030    -0.04405   0.31401   1.00
H2       0.38343    -0.03901   0.30242   1.00
H2       0.47367    -0.02394   0.35014   1.00
H2       0.49749    0.06224    0.34618   1.00
H2       0.43839    0.01396    0.36540   1.00
C4       0.83764    0.64463    0.28288   1.00
C4       0.86643    0.70190    0.29630   1.00
C3       0.84383    0.58583    0.28578   1.00
C3       0.90941    0.70877    0.31290   1.00
C3       0.80141    0.64612    0.26535   1.00
C3       0.85167    0.75557    0.29316   1.00
C2       0.78086    0.53239    0.25449   1.00
C2       0.92390    0.82003    0.32249   1.00
C3       0.81658    0.53141    0.27193   1.00
C3       0.93685    0.76589    0.32575   1.00
C3       0.77319    0.59014    0.25176   1.00
C3       0.88219    0.81402    0.30576   1.00
H1       0.86812    0.58071    0.29808   1.00
H1       0.92239    0.67270    0.31606   1.00
C5       0.79334    0.70338    0.26155   1.00
C5       0.80710    0.75101    0.27737   1.00
H1       0.82309    0.49043    0.27474   1.00
H1       0.96713    0.76782    0.33762   1.00
H1       0.74571    0.59111    0.23955   1.00
H1       0.87464    0.85391    0.30252   1.00
O3       0.76858    0.70974    0.24308   1.00
O3       0.78155    0.79508    0.27653   1.00
Si1      0.82159    0.75327    0.22490   1.00
Si1      0.71345    0.77709    0.28964   1.00
C6       0.76025    0.73143    0.20554   1.00
C6       0.85960    0.84031    0.23131   1.00
C6       0.87942    0.72489    0.21906   1.00
C6       0.67726    0.70328    0.30503   1.00
C6       0.74049    0.84952    0.30496   1.00
C6       0.65222    0.77373    0.27247   1.00
C6       0.70569    0.65379    0.20377   1.00
H2       0.73215    0.75623    0.21068   1.00
C6       0.78224    0.75640    0.18314   1.00
H2       0.82125    0.84064    0.24126   1.00
C6       0.92728    0.87335    0.24387   1.00
C6       0.87182    0.89292    0.21413   1.00
H2       0.84579    0.66971    0.21800   1.00
C6       0.91768    0.74784    0.19823   1.00
C6       0.93686    0.73699    0.23468   1.00
C6       0.65541    0.63319    0.29467   1.00
C6       0.71304    0.70367    0.32541   1.00
H2       0.62974    0.70003    0.31000   1.00
H2       0.77547    0.84643    0.31571   1.00
C6       0.78306    0.92010    0.29413   1.00
C6       0.68507    0.85416    0.31790   1.00
H2       0.66696    0.82712    0.27019   1.00
C6       0.65250    0.74606    0.25084   1.00
C6       0.57585    0.73686    0.27941   1.00
H2       0.67904    0.63353    0.21812   1.00
H2       0.72916    0.62371    0.19932   1.00
H2       0.66675    0.64530    0.19252   1.00
H2       0.74406    0.76539    0.17586   1.00
H2       0.83090    0.80354    0.18221   1.00
H2       0.78622    0.71856    0.17388   1.00
H2       0.93742    0.92188    0.25046   1.00
H2       0.92489    0.84133    0.25651   1.00
H2       0.97083    0.88362    0.23435   1.00
H2       0.82459    0.87983    0.20616   1.00
H2       0.89071    0.94411    0.22031   1.00
H2       0.90942    0.89588    0.20318   1.00
H2       0.94370    0.80320    0.19655   1.00
H2       0.95579    0.73191    0.19654   1.00
H2       0.88283    0.72443    0.18559   1.00
H2       0.98267    0.78661    0.23264   1.00
H2       0.92136    0.73414    0.25036   1.00
H2       0.95185    0.69832    0.23268   1.00
H2       0.69829    0.62446    0.29299   1.00
H2       0.61710    0.59131    0.30386   1.00
H2       0.63298    0.62909    0.27977   1.00
H2       0.67990    0.65856    0.33448   1.00
H2       0.76025    0.70311    0.32294   1.00
H2       0.72429    0.74766    0.33483   1.00
H2       0.80712    0.96106    0.30533   1.00
H2       0.82410    0.92172    0.28499   1.00
H2       0.75151    0.93174    0.28427   1.00
H2       0.65397    0.80754    0.32653   1.00
H2       0.70914    0.89580    0.32889   1.00
H2       0.65147    0.86407    0.30839   1.00
H2       0.64090    0.69319    0.25115   1.00
H2       0.61586    0.74942    0.24083   1.00
H2       0.70245    0.77643    0.24400   1.00
H2       0.54488    0.74724    0.26885   1.00
H2       0.55421    0.68161    0.28008   1.00
H2       0.57003    0.75433    0.29429   1.00
C4       0.80679    0.16211    0.28286   1.00
C4       0.83532    0.13336    0.29628   1.00
C3       0.74054    0.15329    0.28527   1.00
C3       0.79830    0.08793    0.31232   1.00
C3       0.84582    0.20110    0.26585   1.00
C3       0.90476    0.15072    0.29371   1.00
C2       0.75145    0.21907    0.25450   1.00
C2       0.89623    0.07617    0.32248   1.00
C3       0.71344    0.18064    0.27143   1.00
C3       0.82807    0.06060    0.32518   1.00
C3       0.81805    0.22933    0.25227   1.00
C3       0.93291    0.12035    0.30629   1.00
H1       0.71012    0.12694    0.29719   1.00
H1       0.74851    0.07302    0.31505   1.00
C5       0.91243    0.21187    0.26257   1.00
C5       0.94561    0.19777    0.27852   1.00
H1       0.66504    0.17217    0.27387   1.00
H1       0.79901    0.02848    0.33664   1.00
H1       0.84736    0.25876    0.24046   1.00
H1       0.98128    0.12990    0.30343   1.00
O3       0.94528    0.23947    0.24450   1.00
O3       1.01560    0.22549    0.27833   1.00
Si1      0.93972    0.18929    0.22590   1.00
Si1      1.06253    0.29256    0.29224   1.00
C6       0.97981    0.25317    0.20725   1.00
C6       0.99032    0.15309    0.23240   1.00
C6       0.85483    0.13010    0.21908   1.00
C6       1.02112    0.32483    0.30761   1.00
C6       1.10801    0.26593    0.30768   1.00
C6       1.12109    0.35675    0.27591   1.00
C6       0.95447    0.30602    0.20569   1.00
H2       1.03200    0.28207    0.21294   1.00
C6       0.98624    0.23436    0.18475   1.00
H2       1.02710    0.19094    0.24286   1.00
C6       0.95619    0.08397    0.24425   1.00
C6       1.03385    0.14462    0.21542   1.00
H2       0.83175    0.16240    0.21810   1.00
C6       0.84307    0.09448    0.19790   1.00
C6       0.80907    0.07027    0.23398   1.00
C6       0.97238    0.34569    0.29707   1.00
C6       0.98411    0.28604    0.32748   1.00
H2       1.06382    0.37248    0.31320   1.00
H2       1.06935    0.22896    0.31792   1.00
C6       1.13936    0.22650    0.29677   1.00
C6       1.16556    0.32095    0.32140   1.00
H2       1.16123    0.34400    0.27379   1.00
C6       1.09512    0.35800    0.25410   1.00
C6       1.15760    0.43227    0.28363   1.00
H2       0.95833    0.33069    0.22025   1.00
H2       0.90136    0.28155    0.20071   1.00
H2       0.98528    0.34665    0.19492   1.00
H2       1.03364    0.27440    0.17805   1.00
H2       0.98664    0.18672    0.18347   1.00
H2       0.94489    0.23001    0.17517   1.00
H2       0.99489    0.07468    0.25102   1.00
H2       0.92450    0.08373    0.25669   1.00
H2       0.92505    0.04116    0.23421   1.00
H2       1.06773    0.19313    0.20802   1.00
H2       1.06674    0.12658    0.22170   1.00
H2       1.00127    0.10777    0.20399   1.00
H2       0.87411    0.07025    0.19625   1.00
H2       0.78971    0.05532    0.19559   1.00
H2       0.85485    0.13056    0.18559   1.00
H2       0.81491    0.02573    0.23166   1.00
H2       0.81957    0.08408    0.24984   1.00
H2       0.75524    0.05382    0.23151   1.00
H2       0.92166    0.30195    0.29474   1.00
H2       0.96625    0.38204    0.30648   1.00
H2       0.99189    0.37012    0.28246   1.00
H2       0.96964    0.31702    0.33668   1.00
H2       0.93757    0.23829    0.32436   1.00
H2       1.01678    0.27511    0.33705   1.00
H2       1.15618    0.20221    0.30791   1.00
H2       1.10183    0.18588    0.28708   1.00
H2       1.18325    0.26019    0.28743   1.00
H2       1.14760    0.34985    0.33012   1.00
H2       1.18309    0.29670    0.33235   1.00
H2       1.20966    0.35662    0.31243   1.00
H2       1.05263    0.36780    0.25420   1.00
H2       1.13559    0.39658    0.24461   1.00
H2       1.07787    0.30911    0.24678   1.00
H2       1.19972    0.46540    0.27358   1.00
H2       1.12250    0.45216    0.28421   1.00
H2       1.17939    0.43707    0.29870   1.00
C4       0.80821    0.65070    0.78066   1.00
C4       0.83641    0.70653    0.79461   1.00
C3       0.75183    0.63492    0.76784   1.00
C3       0.80728    0.74828    0.79846   1.00
C3       0.83695    0.60723    0.77955   1.00
C3       0.89722    0.72214    0.80537   1.00
C2       0.75204    0.53487    0.75358   1.00
C2       0.89564    0.81755    0.82340   1.00
C3       0.72424    0.57840    0.75476   1.00
C3       0.83640    0.80266    0.81231   1.00
C3       0.80917    0.55122    0.76598   1.00
C3       0.92409    0.77532    0.81990   1.00
H1       0.72930    0.66418    0.76758   1.00
H1       0.76381    0.74015    0.79141   1.00
C5       0.89340    0.62017    0.79195   1.00
C5       0.93058    0.68433    0.80173   1.00
H1       0.68312    0.56923    0.74595   1.00
H1       0.81344    0.83149    0.81436   1.00
H1       0.83150    0.52160    0.76494   1.00
H1       0.96511    0.78305    0.82841   1.00
O3       0.91364    0.57216    0.79335   1.00
O3       0.99586    0.70669    0.80882   1.00
Si1      0.88421    0.51593    0.81161   1.00
Si1      1.06054    0.76156    0.79531   1.00
C6       0.91793    0.46523    0.80280   1.00
C6       0.92436    0.55859    0.83424   1.00
C6       0.79426    0.46889    0.81259   1.00
C6       1.04379    0.79206    0.77259   1.00
C6       1.10511    0.82983    0.81216   1.00
C6       1.11177    0.72496    0.79029   1.00
C6       0.90652    0.44589    0.77973   1.00
H2       0.97276    0.49963    0.80443   1.00
C6       0.90246    0.39796    0.81411   1.00
H2       0.97159    0.60164    0.82858   1.00
C6       0.88948    0.59039    0.84726   1.00
C6       0.94680    0.52146    0.84984   1.00
H2       0.78082    0.45420    0.79674   1.00
C6       0.76074    0.40080    0.82503   1.00
C6       0.75378    0.50523    0.81936   1.00
C6       0.99891    0.73874    0.75611   1.00
C6       1.01898    0.84535    0.77364   1.00
H2       1.09448    0.82085    0.76585   1.00
H2       1.07204    0.85175    0.81377   1.00
C6       1.11512    0.81046    0.83419   1.00
C6       1.17611    0.88915    0.80512   1.00
H2       1.14158    0.73418    0.80414   1.00
C6       1.07358    0.64609    0.78737   1.00
C6       1.16476    0.75557    0.77258   1.00
H2       0.92602    0.49116    0.77014   1.00
H2       0.85240    0.41300    0.77630   1.00
H2       0.93331    0.41908    0.77517   1.00
H2       0.94629    0.39020    0.81294   1.00
H2       0.89166    0.39867    0.83014   1.00
H2       0.85919    0.35283    0.80750   1.00
H2       0.92548    0.62698    0.85820   1.00
H2       0.87184    0.61830    0.83800   1.00
H2       0.84631    0.55124    0.85579   1.00
H2       0.98040    0.50569    0.84286   1.00
H2       0.97561    0.55518    0.86241   1.00
H2       0.90263    0.47679    0.85630   1.00
H2       0.78070    0.40927    0.84048   1.00
H2       0.70527    0.37767    0.82597   1.00
H2       0.76921    0.36253    0.81782   1.00
H2       0.74747    0.50429    0.83579   1.00
H2       0.77758    0.55808    0.81468   1.00
H2       0.70265    0.47925    0.81272   1.00
H2       0.94469    0.71697    0.75918   1.00
H2       1.00854    0.76286    0.74118   1.00
H2       1.00974    0.69714    0.75491   1.00
H2       1.02022    0.86626    0.75859   1.00
H2       0.96685    0.82299    0.77913   1.00
H2       1.05160    0.88874    0.78329   1.00
H2       1.13260    0.85435    0.84432   1.00
H2       1.06725    0.76988    0.84046   1.00
H2       1.15262    0.79365    0.83473   1.00
H2       1.17357    0.90747    0.79001   1.00
H2       1.19405    0.93267    0.81543   1.00
H2       1.21447    0.87337    0.80499   1.00
H2       1.03963    0.62989    0.77428   1.00
H2       1.10910    0.62708    0.78553   1.00
H2       1.04295    0.62127    0.80069   1.00
H2       1.20009    0.73587    0.77300   1.00
H2       1.13961    0.74262    0.75779   1.00
H2       1.19563    0.81092    0.77362   1.00
C4       0.35147    0.16573    0.78142   1.00
C4       0.29439    0.13679    0.79492   1.00
C3       0.35655    0.20608    0.76431   1.00
C3       0.23411    0.14007    0.79162   1.00
C3       0.40640    0.15310    0.78491   1.00
C3       0.29713    0.10268    0.81279   1.00
C2       0.46707    0.21960    0.75429   1.00
C2       0.18051    0.07564    0.82269   1.00
C3       0.41254    0.23197    0.75104   1.00
C3       0.17898    0.11090    0.80521   1.00
C3       0.46304    0.18075    0.77157   1.00
C3       0.23989    0.07112    0.82584   1.00
H1       0.31982    0.21803    0.76102   1.00
H1       0.22831    0.16336    0.77918   1.00
C5       0.40454    0.11319    0.80176   1.00
C5       0.35665    0.09966    0.81748   1.00
H1       0.41318    0.26040    0.73883   1.00
H1       0.13694    0.11536    0.80214   1.00
H1       0.50292    0.17285    0.77458   1.00
H1       0.24098    0.04318    0.83787   1.00
O3       0.45158    0.09169    0.80318   1.00
O3       0.36569    0.07920    0.83642   1.00
Si1      0.43304    0.01704    0.79431   1.00
Si1      0.39732    0.13549    0.85461   1.00
C6       0.51480    0.02648    0.79727   1.00
C6       0.37371    -0.04497   0.81105   1.00
C6       0.40804    0.00544    0.76858   1.00
C6       0.41578    0.21962    0.84939   1.00
C6       0.33462    0.10002    0.87357   1.00
C6       0.47082    0.13596    0.86359   1.00
C6       0.57602    0.09526    0.78939   1.00
H2       0.52042    0.02823    0.81375   1.00
C6       0.53014    -0.03043   0.78990   1.00
H2       0.38469    -0.01641   0.82521   1.00
C6       0.29596    -0.07393   0.80695   1.00
C6       0.38066    -0.10878   0.81605   1.00
H2       0.44751    0.05268    0.76167   1.00
C6       0.40955    -0.05400   0.75687   1.00
C6       0.33769    -0.00154   0.76250   1.00
C6       0.46590    0.25877    0.83159   1.00
C6       0.35597    0.23530    0.84763   1.00
H2       0.44254    0.24677    0.86311   1.00
H2       0.29228    0.10440    0.86739   1.00
C6       0.30474    0.02220    0.87790   1.00
C6       0.35187    0.13648    0.89466   1.00
H2       0.45097    0.09218    0.87379   1.00
C6       0.51340    0.12277    0.84751   1.00
C6       0.52329    0.19882    0.87633   1.00
H2       0.57627    0.13924    0.79628   1.00
H2       0.57387    0.09970    0.77293   1.00
H2       0.62488    0.09923    0.79318   1.00
H2       0.56759    -0.03247   0.79991   1.00
H2       0.48513    -0.08093   0.78976   1.00
H2       0.55196    -0.02052   0.77466   1.00
H2       0.26584    -0.10001   0.82039   1.00
H2       0.28446    -0.03384   0.80338   1.00
H2       0.27793    -0.11077   0.79454   1.00
H2       0.43115    -0.09395   0.82202   1.00
H2       0.34425    -0.14047   0.82775   1.00
H2       0.37108    -0.14065   0.80264   1.00
H2       0.38007    -0.10244   0.76483   1.00
H2       0.38880    -0.06034   0.74152   1.00
H2       0.46142    -0.04381   0.75483   1.00
H2       0.29596    -0.05420   0.76340   1.00
H2       0.32345    0.02876    0.77181   1.00
H2       0.33967    0.01525    0.74683   1.00
H2       0.43995    0.24593    0.81698   1.00
H2       0.48844    0.31383    0.83357   1.00
H2       0.50787    0.24839    0.83080   1.00
H2       0.37578    0.29036    0.84727   1.00
H2       0.32623    0.21434    0.83387   1.00
H2       0.32143    0.21586    0.86057   1.00
H2       0.25875    0.00249    0.88722   1.00
H2       0.29001    -0.00749   0.86387   1.00
H2       0.34104    0.01222    0.88590   1.00
H2       0.37129    0.19113    0.89315   1.00
H2       0.30604    0.11604    0.90409   1.00
H2       0.38948    0.12891    0.90285   1.00
H2       0.53416    0.16218    0.83585   1.00
H2       0.55566    0.11990    0.85448   1.00
H2       0.48140    0.07424    0.84006   1.00
H2       0.56065    0.18845    0.88356   1.00
H2       0.55128    0.24408    0.86684   1.00
H2       0.49844    0.21103    0.88846   1.00
C4       0.83392    0.18591    0.78162   1.00
C4       0.86280    0.15761    0.79508   1.00
C3       0.78598    0.14781    0.76623   1.00
C3       0.85142    0.09020    0.79330   1.00
C3       0.85455    0.25648    0.78330   1.00
C3       0.90538    0.19839    0.81131   1.00
C2       0.78046    0.24770    0.75435   1.00
C2       0.92430    0.10462    0.82263   1.00
C3       0.76025    0.17788    0.75289   1.00
C3       0.88079    0.06418    0.80681   1.00
C3       0.82703    0.28557    0.76995   1.00
C3       0.93681    0.17219    0.82422   1.00
H1       0.76816    0.09703    0.76430   1.00
H1       0.82182    0.05815    0.78208   1.00
C5       0.90229    0.29746    0.79837   1.00
C5       0.91692    0.26525    0.81448   1.00
H1       0.72608    0.14789    0.74196   1.00
H1       0.87029    0.01487    0.80490   1.00
H1       0.84085    0.33580    0.77170   1.00
H1       0.97059    0.20348    0.83495   1.00
O3       0.93054    0.36728    0.79781   1.00
O3       0.94633    0.30030    0.83221   1.00
Si1      1.00319    0.41417    0.78626   1.00
Si1      0.89779    0.28743    0.85193   1.00
C6       1.00355    0.49218    0.78775   1.00
C6       1.06757    0.41537    0.80159   1.00
C6       1.00297    0.38982    0.76081   1.00
C6       0.81000    0.22678    0.84989   1.00
C6       0.93489    0.26120    0.87066   1.00
C6       0.90883    0.36720    0.85919   1.00
C6       0.93558    0.48973    0.78145   1.00
H2       1.00846    0.50215    0.80405   1.00
C6       1.06200    0.55863    0.77768   1.00
H2       1.04421    0.40524    0.81661   1.00
C6       1.08764    0.35933    0.79806   1.00
C6       1.13689    0.48373    0.80370   1.00
H2       0.95545    0.38493    0.75506   1.00
C6       1.06091    0.44262    0.74663   1.00
C6       1.00016    0.32043    0.75607   1.00
C6       0.76808    0.23680    0.83275   1.00
C6       0.78628    0.14886    0.85016   1.00
H2       0.78970    0.23436    0.86405   1.00
H2       0.92330    0.21058    0.86567   1.00
C6       1.01449    0.30372    0.87234   1.00
C6       0.90653    0.25269    0.89274   1.00
H2       0.95615    0.39061    0.86791   1.00
C6       0.92141    0.41857    0.84172   1.00
C6       0.85373    0.36821    0.87332   1.00
H2       0.89221    0.45149    0.79015   1.00
H2       0.92460    0.47765    0.76536   1.00
H2       0.93829    0.53860    0.78428   1.00
H2       1.07202    0.60327    0.78668   1.00
H2       1.10969    0.55832    0.77642   1.00
H2       1.04843    0.56704    0.76248   1.00
H2       1.11652    0.35663    0.81098   1.00
H2       1.04314    0.30876    0.79647   1.00
H2       1.11952    0.37037    0.78460   1.00
H2       1.12924    0.52496    0.80911   1.00
H2       1.17028    0.47904    0.81479   1.00
H2       1.16415    0.49867    0.78926   1.00
H2       1.11120    0.45949    0.75315   1.00
H2       1.05952    0.42144    0.73160   1.00
H2       1.05530    0.48685    0.74387   1.00
H2       1.05086    0.32592    0.75568   1.00
H2       0.97036    0.28053    0.76692   1.00
H2       0.97702    0.30147    0.74119   1.00
H2       0.77319    0.21647    0.81830   1.00
H2       0.71379    0.20993    0.83653   1.00
H2       0.78331    0.29020    0.83057   1.00
H2       0.73083    0.11832    0.85168   1.00
H2       0.79976    0.13238    0.83629   1.00
H2       0.80754    0.13518    0.86296   1.00
H2       1.03341    0.27702    0.88180   1.00
H2       1.03866    0.31100    0.85749   1.00
H2       1.03193    0.35382    0.87904   1.00
H2       0.85103    0.22174    0.89312   1.00
H2       0.92629    0.22689    0.90227   1.00
H2       0.92168    0.30202    0.89970   1.00
H2       0.87822    0.39968    0.83134   1.00
H2       0.93171    0.46797    0.84756   1.00
H2       0.96579    0.42754    0.83299   1.00
H2       0.87142    0.41954    0.87920   1.00
H2       0.80604    0.35221    0.86518   1.00
H2       0.84269    0.33498    0.88643   1.00
C4       -0.01813   0.47187    0.38520   1.00
C4       0.03782    0.50096    0.37129   1.00
C3       -0.06333   0.40065    0.38723   1.00
C3       0.05041    0.46223    0.35677   1.00
C3       -0.03070   0.51604    0.39763   1.00
C3       0.08425    0.57270    0.37181   1.00
C2       -0.13210   0.41721    0.41295   1.00
C2       0.15120    0.56379    0.34339   1.00
C3       -0.11898   0.37404    0.40063   1.00
C3       0.10589    0.49265    0.34332   1.00
C3       -0.08636   0.48813    0.41134   1.00
C3       0.13813    0.60272    0.35756   1.00
H1       -0.05701   0.36600    0.37907   1.00
H1       0.01941    0.41085    0.35545   1.00
C5       0.01258    0.58776    0.39636   1.00
C5       0.07640    0.61422    0.38641   1.00
H1       -0.15023   0.32211    0.40134   1.00
H1       0.11281    0.46203    0.33327   1.00
H1       -0.09363   0.52034    0.42056   1.00
H1       0.16830    0.65462    0.35727   1.00
O3       -0.00605   0.63033    0.40577   1.00
O3       0.12762    0.68056    0.38984   1.00
Si1      -0.04769   0.65987    0.39308   1.00
Si1      0.18900    0.69431    0.40551   1.00
C6       -0.06580   0.69765    0.41379   1.00
C6       0.01039    0.72216    0.37616   1.00
C6       -0.12327   0.59528    0.38180   1.00
C6       0.18851    0.62311    0.41669   1.00
C6       0.26256    0.73920    0.39059   1.00
C6       0.19056    0.74994    0.42445   1.00
C6       -0.09463   0.65223    0.43325   1.00
H2       -0.01511   0.73870    0.41803   1.00
C6       -0.11030   0.73246    0.41100   1.00
H2       0.05905    0.73870    0.38374   1.00
C6       0.01813    0.69912    0.35443   1.00
C6       0.00637    0.78849    0.37282   1.00
H2       -0.14688   0.55927    0.39431   1.00
C6       -0.17716   0.61516    0.37478   1.00
C6       -0.11858   0.55334    0.36350   1.00
C6       0.12424    0.57221    0.42916   1.00
C6       0.20920    0.57842    0.40367   1.00
H2       0.22960    0.64708    0.42780   1.00
H2       0.25973    0.70101    0.37994   1.00
C6       0.26614    0.79790    0.37713   1.00
C6       0.33305    0.76909    0.40153   1.00
H2       0.21834    0.80031    0.41746   1.00
C6       0.12030    0.74150    0.43064   1.00
C6       0.22880    0.75503    0.44475   1.00
H2       -0.06089   0.63388    0.43848   1.00
H2       -0.14486   0.60790    0.43040   1.00
H2       -0.09950   0.68102    0.44582   1.00
H2       -0.09286   0.77576    0.42135   1.00
H2       -0.10792   0.75145    0.39570   1.00
H2       -0.16398   0.69790    0.41452   1.00
H2       0.06477    0.73838    0.34716   1.00
H2       0.02192    0.65309    0.35477   1.00
H2       -0.02463   0.69013    0.34472   1.00
H2       0.01077    0.81463    0.38712   1.00
H2       0.04825    0.82507    0.36326   1.00
H2       -0.04133   0.77706    0.36540   1.00
H2       -0.15421   0.65936    0.36470   1.00
H2       -0.21995   0.57344    0.36672   1.00
H2       -0.19992   0.62632    0.38765   1.00
H2       -0.11469   0.57810    0.34896   1.00
H2       -0.07556   0.54498    0.36445   1.00
H2       -0.16446   0.50297    0.36288   1.00
H2       0.08395    0.53505    0.41941   1.00
H2       0.13720    0.54352    0.43986   1.00
H2       0.10347    0.59818    0.43802   1.00
H2       0.21573    0.54279    0.41333   1.00
H2       0.17077    0.54800    0.39242   1.00
H2       0.25768    0.60910    0.39588   1.00
H2       0.30729    0.81470    0.36600   1.00
H2       0.21897    0.78082    0.36859   1.00
H2       0.27547    0.84214    0.38615   1.00
H2       0.33599    0.73086    0.41087   1.00
H2       0.37429    0.78684    0.39039   1.00
H2       0.34316    0.81251    0.41111   1.00
H2       0.08639    0.69153    0.43721   1.00
H2       0.12611    0.78037    0.44155   1.00
H2       0.09523    0.74732    0.41739   1.00
H2       0.23516    0.79821    0.45385   1.00
H2       0.20068    0.70899    0.45392   1.00
H2       0.27975    0.76298    0.44200   1.00
C4       0.49010    1.01841    0.38509   1.00
C4       0.46330    0.96243    0.37120   1.00
C3       0.46748    1.06660    0.38604   1.00
C3       0.41578    0.95262    0.35567   1.00
C3       0.54326    1.02785    0.39867   1.00
C3       0.48467    0.91303    0.37280   1.00
C2       0.54926    1.13218    0.41293   1.00
C2       0.41266    0.84872    0.34341   1.00
C3       0.49647    1.12214    0.39948   1.00
C3       0.39065    0.89700    0.34228   1.00
C3       0.57095    1.08349    0.41238   1.00
C3       0.46096    0.85898    0.35861   1.00
H1       0.42911    1.06262    0.37703   1.00
H1       0.39834    0.98581    0.35355   1.00
C5       0.56820    0.98150    0.39851   1.00
C5       0.52999    0.91807    0.38841   1.00
H1       0.47837    1.15563    0.39938   1.00
H1       0.35591    0.89218    0.33145   1.00
H1       0.60773    1.08854    0.42241   1.00
H1       0.48007    0.82655    0.35914   1.00
O3       0.62663    0.99690    0.40910   1.00
O3       0.54066    0.86439    0.39274   1.00
Si1      0.70041    1.03527    0.39763   1.00
Si1      0.48778    0.80423    0.40793   1.00
C6       0.75151    1.05050    0.41938   1.00
C6       0.70403    0.97513    0.38147   1.00
C6       0.71800    1.11237    0.38582   1.00
C6       0.41741    0.80920    0.41746   1.00
C6       0.45829    0.73021    0.39318   1.00
C6       0.53620    0.79930    0.42809   1.00
C6       0.73359    1.08131    0.43811   1.00
H2       0.73816    0.99892    0.42394   1.00
C6       0.83142    1.09135    0.41794   1.00
H2       0.66849    0.92706    0.38881   1.00
C6       0.67802    0.96900    0.35916   1.00
C6       0.77282    0.97485    0.37970   1.00
H2       0.70513    1.13751    0.39776   1.00
C6       0.79397    1.16322    0.37992   1.00
C6       0.67622    1.11039    0.36654   1.00
C6       0.43201    0.87459    0.42952   1.00
C6       0.35551    0.79193    0.40320   1.00
H2       0.39614    0.76800    0.42859   1.00
H2       0.42641    0.73530    0.38170   1.00
C6       0.51385    0.72302    0.38105   1.00
C6       0.41253    0.66020    0.40391   1.00
H2       0.55758    0.76926    0.42193   1.00
C6       0.59914    0.86781    0.43493   1.00
C6       0.49786    0.76208    0.44799   1.00
H2       0.68016    1.04983    0.44249   1.00
H2       0.74302    1.13265    0.43486   1.00
H2       0.76396    1.08426    0.45137   1.00
H2       0.85327    1.07181    0.42904   1.00
H2       0.85024    1.08780    0.40308   1.00
H2       0.85261    1.14545    0.42131   1.00
H2       0.66933    0.92141    0.35224   1.00
H2       0.62964    0.96821    0.35840   1.00
H2       0.71521    1.01089    0.34979   1.00
H2       0.79077    0.96902    0.39452   1.00
H2       0.76688    0.93202    0.37049   1.00
H2       0.81229    1.02168    0.37262   1.00
H2       0.81495    1.13822    0.37061   1.00
H2       0.79928    1.20720    0.37145   1.00
H2       0.82567    1.18459    0.39330   1.00
H2       0.69891    1.10502    0.35255   1.00
H2       0.62372    1.06931    0.36677   1.00
H2       0.67494    1.15792    0.36533   1.00
H2       0.43948    0.91586    0.41943   1.00
H2       0.38893    0.86390    0.43938   1.00
H2       0.47673    0.89309    0.43921   1.00
H2       0.31256    0.78789    0.41193   1.00
H2       0.36786    0.83097    0.39174   1.00
H2       0.33675    0.74309    0.39553   1.00
H2       0.48989    0.68213    0.36983   1.00
H2       0.54754    0.76968    0.37271   1.00
H2       0.54521    0.71126    0.39095   1.00
H2       0.37082    0.65979    0.41232   1.00
H2       0.38938    0.61916    0.39270   1.00
H2       0.44217    0.64774    0.41435   1.00
H2       0.58454    0.90377    0.44075   1.00
H2       0.62857    0.85980    0.44663   1.00
H2       0.63310    0.89165    0.42215   1.00
H2       0.53125    0.75326    0.45798   1.00
H2       0.48060    0.79219    0.45643   1.00
H2       0.45367    0.71230    0.44481   1.00
C4       0.52831    0.50990    0.38510   1.00
C4       0.49914    0.53670    0.37121   1.00
C3       0.59915    0.53265    0.38607   1.00
C3       0.53689    0.58436    0.35571   1.00
C3       0.48458    0.45662    0.39863   1.00
C3       0.42833    0.51520    0.37277   1.00
C2       0.58293    0.45074    0.41293   1.00
C2       0.43607    0.58734    0.34341   1.00
C3       0.62570    0.50366    0.39952   1.00
C3       0.50640    0.60949    0.34231   1.00
C3       0.51252    0.42893    0.41234   1.00
C3       0.39800    0.53891    0.35857   1.00
H1       0.63355    0.57111    0.37710   1.00
H1       0.58755    0.60190    0.35361   1.00
C5       0.41326    0.43156    0.39844   1.00
C5       0.38800    0.46974    0.38835   1.00
H1       0.67730    0.52185    0.39944   1.00
H1       0.53635    0.64432    0.33151   1.00
H1       0.48077    0.39205    0.42235   1.00
H1       0.34645    0.51971    0.35908   1.00
O3       0.37023    0.37302    0.40899   1.00
O3       0.32358    0.45891    0.39264   1.00
Si1      0.33502    0.29933    0.39747   1.00
Si1      0.31608    0.51162    0.40786   1.00
C6       0.29908    0.24806    0.41920   1.00
C6       0.27130    0.29568    0.38129   1.00
C6       0.39471    0.28196    0.38568   1.00
C6       0.39128    0.58201    0.41744   1.00
C6       0.27153    0.54108    0.39310   1.00
C6       0.26265    0.46301    0.42797   1.00
C6       0.34770    0.26594    0.43795   1.00
H2       0.26075    0.26128    0.42374   1.00
C6       0.26016    0.16817    0.41770   1.00
H2       0.25864    0.33111    0.38864   1.00
C6       0.29130    0.32185    0.35900   1.00
C6       0.20232    0.22683    0.37947   1.00
H2       0.43265    0.29482    0.39764   1.00
C6       0.36976    0.20605    0.37975   1.00
C6       0.43459    0.32390    0.36643   1.00
C6       0.44209    0.56746    0.42952   1.00
C6       0.43593    0.64404    0.40322   1.00
H2       0.37122    0.60315    0.42857   1.00
H2       0.30855    0.57309    0.38165   1.00
C6       0.20892    0.48554    0.38093   1.00
C6       0.24710    0.58668    0.40384   1.00
H2       0.21125    0.44159    0.42178   1.00
C6       0.26831    0.40011    0.43479   1.00
C6       0.26355    0.50118    0.44789   1.00
H2       0.36954    0.31933    0.44236   1.00
H2       0.38969    0.25663    0.43471   1.00
H2       0.32023    0.23546    0.45118   1.00
H2       0.21870    0.14618    0.42879   1.00
H2       0.23791    0.14942    0.40284   1.00
H2       0.29313    0.14704    0.42109   1.00
H2       0.25238    0.33050    0.35207   1.00
H2       0.33885    0.37029    0.35828   1.00
H2       0.29614    0.28477    0.34962   1.00
H2       0.17846    0.20875    0.39427   1.00
H2       0.16544    0.23274    0.37025   1.00
H2       0.20982    0.18747    0.37238   1.00
H2       0.32384    0.18506    0.37040   1.00
H2       0.40853    0.20088    0.37129   1.00
H2       0.35940    0.17427    0.39311   1.00
H2       0.40663    0.30127    0.35243   1.00
H2       0.44590    0.37637    0.36669   1.00
H2       0.48346    0.32530    0.36524   1.00
H2       0.47600    0.56014    0.41943   1.00
H2       0.47435    0.61049    0.43940   1.00
H2       0.41588    0.52267    0.43917   1.00
H2       0.47472    0.68697    0.41199   1.00
H2       0.46274    0.63183    0.39176   1.00
H2       0.40583    0.66277    0.39555   1.00
H2       0.19199    0.50951    0.36971   1.00
H2       0.22203    0.45196    0.37258   1.00
H2       0.16575    0.45405    0.39080   1.00
H2       0.28829    0.62838    0.41228   1.00
H2       0.22921    0.60984    0.39263   1.00
H2       0.20494    0.55690    0.41425   1.00
H2       0.31885    0.41476    0.44064   1.00
H2       0.23081    0.37054    0.44647   1.00
H2       0.25834    0.36624    0.42199   1.00
H2       0.22131    0.46767    0.45785   1.00
H2       0.31089    0.51847    0.45635   1.00
H2       0.25788    0.54533    0.44472   1.00
C4       0.18789    0.34882    0.21953   1.00
C4       0.15881    0.29288    0.20563   1.00
C3       0.15310    0.35330    0.23686   1.00
C3       0.09006    0.23900    0.20662   1.00
C3       0.25510    0.40417    0.21589   1.00
C3       0.20030    0.28994    0.18981   1.00
C2       0.24894    0.46525    0.24637   1.00
C2       0.10338    0.18233    0.17665   1.00
C3       0.18258    0.41005    0.24985   1.00
C3       0.06325    0.18490    0.19265   1.00
C3       0.28443    0.46038    0.22939   1.00
C3       0.17149    0.23653    0.17537   1.00
H1       0.10541    0.31534    0.24059   1.00
H1       0.05732    0.23769    0.21744   1.00
C5       0.29269    0.40288    0.19884   1.00
C5       0.27008    0.34053    0.18834   1.00
H1       0.15479    0.41068    0.26207   1.00
H1       0.01335    0.14705    0.19421   1.00
H1       0.33340    0.49883    0.22690   1.00
H1       0.20063    0.23749    0.16339   1.00
O3       0.35238    0.46080    0.19349   1.00
O3       0.31409    0.33171    0.17584   1.00
Si1      0.35085    0.51319    0.17676   1.00
Si1      0.34962    0.28926    0.18440   1.00
C6       0.43641    0.57867    0.17967   1.00
C6       0.33730    0.47383    0.15281   1.00
C6       0.29370    0.54201    0.18306   1.00
C6       0.32766    0.25396    0.20903   1.00
C6       0.32493    0.22345    0.16656   1.00
C6       0.43855    0.34322    0.18248   1.00
C6       0.46151    0.59970    0.20206   1.00
H2       0.46447    0.55454    0.17394   1.00
C6       0.46513    0.64758    0.16771   1.00
H2       0.35691    0.43906    0.15517   1.00
C6       0.26224    0.42841    0.14523   1.00
C6       0.37727    0.51869    0.13412   1.00
H2       0.30619    0.55658    0.19896   1.00
C6       0.30299    0.60710    0.17182   1.00
C6       0.21474    0.49087    0.18220   1.00
C6       0.33936    0.30317    0.22715   1.00
C6       0.25653    0.18878    0.21272   1.00
H2       0.36368    0.23592    0.21148   1.00
H2       0.27043    0.19068    0.16929   1.00
C6       0.33122    0.24484    0.14373   1.00
C6       0.35751    0.17696    0.16848   1.00
H2       0.44970    0.33907    0.16660   1.00
C6       0.46591    0.42075    0.18594   1.00
C6       0.48560    0.32501    0.19524   1.00
H2       0.45360    0.55587    0.21108   1.00
H2       0.43460    0.62256    0.20950   1.00
H2       0.51612    0.63661    0.20259   1.00
H2       0.51891    0.66743    0.16405   1.00
H2       0.43839    0.64222    0.15353   1.00
H2       0.46269    0.68705    0.17657   1.00
H2       0.26005    0.39601    0.13262   1.00
H2       0.22910    0.39421    0.15700   1.00
H2       0.24107    0.45959    0.13988   1.00
H2       0.43221    0.54543    0.13672   1.00
H2       0.36836    0.48743    0.12057   1.00
H2       0.36150    0.55594    0.13063   1.00
H2       0.30289    0.60109    0.15538   1.00
H2       0.26258    0.61835    0.17562   1.00
H2       0.35013    0.65226    0.17628   1.00
H2       0.19374    0.48843    0.16712   1.00
H2       0.20060    0.43921    0.18640   1.00
H2       0.18824    0.50723    0.19268   1.00
H2       0.29719    0.31300    0.22885   1.00
H2       0.34338    0.28074    0.24141   1.00
H2       0.38621    0.35192    0.22550   1.00
H2       0.25445    0.16777    0.22782   1.00
H2       0.21484    0.19952    0.21188   1.00
H2       0.24636    0.14818    0.20197   1.00
H2       0.30419    0.19976    0.13407   1.00
H2       0.30834    0.27666    0.14095   1.00
H2       0.38421    0.27286    0.13871   1.00
H2       0.35361    0.15784    0.18390   1.00
H2       0.33110    0.13240    0.15859   1.00
H2       0.41117    0.20414    0.16405   1.00
H2       0.45544    0.43145    0.20123   1.00
H2       0.52082    0.45097    0.18331   1.00
H2       0.44178    0.43879    0.17533   1.00
H2       0.53877    0.35567    0.19044   1.00
H2       0.48330    0.33456    0.21139   1.00
H2       0.47161    0.27175    0.19337   1.00
C4       0.64457    0.83683    0.21711   1.00
C4       0.70175    0.86571    0.20365   1.00
C3       0.58176    0.83393    0.21276   1.00
C3       0.70401    0.90006    0.18539   1.00
C3       0.65029    0.81013    0.23616   1.00
C3       0.76020    0.86014    0.20851   1.00
C2       0.53252    0.78066    0.24556   1.00
C2       0.81990    0.92410    0.17746   1.00
C3       0.52739    0.80699    0.22663   1.00
C3       0.76119    0.92790    0.17255   1.00
C3       0.59441    0.78200    0.24978   1.00
C3       0.81840    0.89109    0.19582   1.00
H1       0.57359    0.85109    0.19937   1.00
H1       0.66437    0.90624    0.18094   1.00
C5       0.71169    0.81144    0.24144   1.00
C5       0.76060    0.82431    0.22609   1.00
H1       0.48337    0.80669    0.22272   1.00
H1       0.75971    0.95166    0.15946   1.00
H1       0.59859    0.76133    0.26314   1.00
H1       0.86140    0.89043    0.20018   1.00
O3       0.72112    0.79632    0.26100   1.00
O3       0.81029    0.80668    0.22897   1.00
Si1      0.76017    0.85767    0.27749   1.00
Si1      0.79998    0.73657    0.21871   1.00
C6       0.74432    0.80549    0.29903   1.00
C6       0.84751    0.90151    0.27116   1.00
C6       0.72292    0.90963    0.28009   1.00
C6       0.72681    0.68791    0.20360   1.00
C6       0.87343    0.76506    0.20375   1.00
C6       0.80368    0.68603    0.23843   1.00
C6       0.66905    0.74582    0.30169   1.00
H2       0.77410    0.78078    0.29570   1.00
C6       0.76754    0.83739    0.32073   1.00
H2       0.85280    0.86240    0.26305   1.00
C6       0.87428    0.96354    0.25631   1.00
C6       0.90123    0.92598    0.28870   1.00
H2       0.66879    0.87190    0.28155   1.00
C6       0.74201    0.95572    0.29946   1.00
C6       0.72889    0.95836    0.26224   1.00
C6       0.65529    0.66264    0.21345   1.00
C6       0.72318    0.71337    0.18178   1.00
H2       0.72936    0.64175    0.20077   1.00
H2       0.86604    0.79294    0.19144   1.00
C6       0.94249    0.81748    0.21398   1.00
C6       0.88545    0.70963    0.19353   1.00
H2       0.85819    0.70733    0.24110   1.00
C6       0.77401    0.69085    0.25930   1.00
C6       0.77433    0.60817    0.23427   1.00
H2       0.65124    0.71323    0.28826   1.00
H2       0.63429    0.76531    0.30443   1.00
H2       0.66469    0.71298    0.31443   1.00
H2       0.78162    0.80601    0.32986   1.00
H2       0.81128    0.88871    0.32039   1.00
H2       0.72690    0.83969    0.32897   1.00
H2       0.92440    0.97664    0.25030   1.00
H2       0.84100    0.95248    0.24324   1.00
H2       0.87955    1.00864    0.26398   1.00
H2       0.89311    0.88368    0.29848   1.00
H2       0.95308    0.94766    0.28275   1.00
H2       0.89949    0.96519    0.29791   1.00
H2       0.79723    0.98747    0.30106   1.00
H2       0.72044    0.98950    0.29908   1.00
H2       0.72137    0.92528    0.31310   1.00
H2       0.77559    1.00780    0.26319   1.00
H2       0.72811    0.93780    0.24735   1.00
H2       0.68615    0.96801    0.26276   1.00
H2       0.64072    0.70176    0.21300   1.00
H2       0.61598    0.61846    0.20524   1.00
H2       0.65345    0.64699    0.22915   1.00
H2       0.67982    0.67359    0.17339   1.00
H2       0.71670    0.75782    0.18209   1.00
H2       0.76843    0.72586    0.17282   1.00
H2       0.98298    0.84075    0.20261   1.00
H2       0.93894    0.85902    0.22121   1.00
H2       0.95850    0.79353    0.22541   1.00
H2       0.84022    0.67170    0.18545   1.00
H2       0.92665    0.73307    0.18238   1.00
H2       0.89989    0.68344    0.20468   1.00
H2       0.71960    0.67326    0.25845   1.00
H2       0.78189    0.66121    0.27096   1.00
H2       0.79976    0.74344    0.26443   1.00
H2       0.78892    0.58486    0.24635   1.00
H2       0.71868    0.58087    0.23348   1.00
H2       0.79380    0.59946    0.22014   1.00
C4       0.16211    0.80679    0.21714   1.00
C4       0.13336    0.83532    0.20372   1.00
C3       0.15330    0.74054    0.21473   1.00
C3       0.08794    0.79830    0.18768   1.00
C3       0.20109    0.84581    0.23415   1.00
C3       0.15072    0.90476    0.20629   1.00
C2       0.21907    0.75145    0.24550   1.00
C2       0.07617    0.89623    0.17752   1.00
C3       0.18064    0.71344    0.22857   1.00
C3       0.06061    0.82807    0.17481   1.00
C3       0.22932    0.81805    0.24773   1.00
C3       0.12034    0.93290    0.19371   1.00
H1       0.12695    0.71013    0.20280   1.00
H1       0.07303    0.74851    0.18494   1.00
C5       0.21186    0.91243    0.23743   1.00
C5       0.19776    0.94561    0.22148   1.00
H1       0.17218    0.66504    0.22613   1.00
H1       0.02849    0.79902    0.16336   1.00
H1       0.25875    0.84735    0.25954   1.00
H1       0.12988    0.98128    0.19657   1.00
O3       0.23945    0.94527    0.25551   1.00
O3       0.22547    1.01560    0.22167   1.00
Si1      0.18926    0.93970    0.27410   1.00
Si1      0.29254    1.06253    0.20777   1.00
C6       0.25314    0.97979    0.29276   1.00
C6       0.15305    0.99030    0.26761   1.00
C6       0.13007    0.85480    0.28092   1.00
C6       0.32483    1.02113    0.19240   1.00
C6       0.26591    1.10801    0.19232   1.00
C6       0.35673    1.12109    0.22410   1.00
C6       0.30599    0.95445    0.29432   1.00
H2       0.28204    1.03198    0.28707   1.00
C6       0.23432    0.98621    0.31526   1.00
H2       0.19091    1.02708    0.25714   1.00
C6       0.08394    0.95616    0.25575   1.00
C6       0.14458    1.03382    0.28458   1.00
H2       0.16238    0.83173    0.28190   1.00
C6       0.09444    0.84303    0.30210   1.00
C6       0.07025    0.80904    0.26601   1.00
C6       0.34569    0.97240    0.20294   1.00
C6       0.28605    0.98413    0.17252   1.00
H2       0.37247    1.06383    0.18681   1.00
H2       0.22894    1.06935    0.18208   1.00
C6       0.22648    1.13935    0.20324   1.00
C6       0.32094    1.16557    0.17861   1.00
H2       0.34397    1.16123    0.22622   1.00
C6       0.35797    1.09512    0.24591   1.00
C6       0.43225    1.15761    0.21638   1.00
H2       0.33067    0.95832    0.27975   1.00
H2       0.28152    0.90134    0.29929   1.00
H2       0.34662    0.98527    0.30508   1.00
H2       0.27435    1.03361    0.32196   1.00
H2       0.18667    0.98660    0.31653   1.00
H2       0.22997    0.94486    0.32484   1.00
H2       0.07465    0.99486    0.24898   1.00
H2       0.08371    0.92448    0.24331   1.00
H2       0.04113    0.92502    0.26579   1.00
H2       0.19308    1.06770    0.29199   1.00
H2       0.12653    1.06671    0.27831   1.00
H2       0.10773    1.00123    0.29601   1.00
H2       0.07021    0.87407    0.30375   1.00
H2       0.05529    0.78967    0.30441   1.00
H2       0.13052    0.85481    0.31441   1.00
H2       0.02571    0.81488    0.26834   1.00
H2       0.08407    0.81955    0.25016   1.00
H2       0.05381    0.75522    0.26848   1.00
H2       0.30195    0.92167    0.20527   1.00
H2       0.38204    0.96627    0.19352   1.00
H2       0.37011    0.99191    0.21755   1.00
H2       0.31703    0.96967    0.16333   1.00
H2       0.23829    0.93758    0.17565   1.00
H2       0.27511    1.01680    0.16296   1.00
H2       0.20219    1.15618    0.19210   1.00
H2       0.18586    1.10182    0.21293   1.00
H2       0.26016    1.18324    0.21258   1.00
H2       0.34984    1.14761    0.16988   1.00
H2       0.29669    1.18310    0.16766   1.00
H2       0.35660    1.20966    0.18758   1.00
H2       0.36778    1.05263    0.24581   1.00
H2       0.39654    1.13559    0.25540   1.00
H2       0.30908    1.07786    0.25322   1.00
H2       0.46538    1.19973    0.22644   1.00
H2       0.45214    1.12252    0.21580   1.00
H2       0.43706    1.17940    0.20131   1.00
C4       1.01570    0.52046    0.61388   1.00
C4       0.95984    0.49161    0.62782   1.00
C3       1.02624    0.48207    0.59875   1.00
C3       0.91255    0.42065    0.62922   1.00
C3       1.06468    0.59142    0.61522   1.00
C3       0.95002    0.53566    0.64115   1.00
C2       1.13182    0.58189    0.58694   1.00
C2       0.84908    0.43711    0.65672   1.00
C3       1.08288    0.51180    0.58572   1.00
C3       0.85831    0.39417    0.64314   1.00
C3       1.12078    0.62071    0.60168   1.00
C3       0.89679    0.50767    0.65565   1.00
H1       0.99294    0.43142    0.59670   1.00
H1       0.91636    0.38606    0.62026   1.00
C5       1.05715    0.63271    0.63001   1.00
C5       0.99364    0.60727    0.64008   1.00
H1       1.08809    0.48139    0.57516   1.00
H1       0.82536    0.34247    0.64335   1.00
H1       1.15447    0.67204    0.60245   1.00
H1       0.89308    0.53945    0.66594   1.00
O3       1.10989    0.69799    0.63350   1.00
O3       0.97732    0.65126    0.64984   1.00
Si1      1.16526    0.71188    0.65138   1.00
Si1      0.92725    0.67326    0.63845   1.00
C6       1.22260    0.79815    0.64550   1.00
C6       1.12438    0.70401    0.67480   1.00
C6       1.20456    0.66174    0.64893   1.00
C6       0.89382    0.63724    0.61444   1.00
C6       0.86008    0.64859    0.65579   1.00
C6       0.97163    0.76293    0.63688   1.00
C6       1.24220    0.81437    0.62255   1.00
H2       1.19256    0.82240    0.64907   1.00
C6       1.29132    0.83992    0.65746   1.00
H2       1.08458    0.71545    0.67058   1.00
C6       1.08670    0.63234    0.68521   1.00
C6       1.16558    0.75522    0.69221   1.00
H2       1.21887    0.66836    0.63291   1.00
C6       1.27208    0.68498    0.66112   1.00
C6       1.16161    0.58273    0.65277   1.00
C6       0.94523    0.64747    0.59711   1.00
C6       0.83496    0.56121    0.61303   1.00
H2       0.86943    0.66607    0.60965   1.00
H2       0.83325    0.59300    0.65523   1.00
C6       0.88104    0.66750    0.67852   1.00
C6       0.80587    0.67019    0.65101   1.00
H2       0.96497    0.77932    0.65186   1.00
C6       1.05034    0.79807    0.63388   1.00
C6       0.94585    0.79724    0.62130   1.00
H2       1.19702    0.79659    0.61300   1.00
H2       1.27077    0.79023    0.61721   1.00
H2       1.27353    0.86927    0.62000   1.00
H2       1.30445    0.89328    0.65867   1.00
H2       1.28897    0.82103    0.67276   1.00
H2       1.33406    0.83987    0.64979   1.00
H2       1.05202    0.63090    0.69700   1.00
H2       1.05557    0.59196    0.67454   1.00
H2       1.12279    0.62024    0.69239   1.00
H2       1.18613    0.80797    0.68734   1.00
H2       1.13307    0.74827    0.70531   1.00
H2       1.20742    0.74813    0.69741   1.00
H2       1.26505    0.69113    0.67721   1.00
H2       1.29012    0.64842    0.65981   1.00
H2       1.31345    0.73266    0.65528   1.00
H2       1.16149    0.56989    0.66874   1.00
H2       1.10882    0.56020    0.64813   1.00
H2       1.18331    0.55664    0.64425   1.00
H2       0.96193    0.61001    0.59794   1.00
H2       0.92131    0.64149    0.58227   1.00
H2       0.99023    0.69810    0.59741   1.00
H2       0.81347    0.54954    0.59771   1.00
H2       0.85246    0.52543    0.61636   1.00
H2       0.79278    0.55047    0.62320   1.00
H2       0.83661    0.64032    0.68841   1.00
H2       0.91817    0.65282    0.68327   1.00
H2       0.90294    0.72199    0.68131   1.00
H2       0.78668    0.65702    0.63552   1.00
H2       0.76189    0.64376    0.66111   1.00
H2       0.82680    0.72491    0.65316   1.00
H2       1.06386    0.78355    0.61960   1.00
H2       1.07438    0.85359    0.63427   1.00
H2       1.07266    0.78356    0.64610   1.00
H2       0.97054    0.85221    0.62394   1.00
H2       0.95699    0.78959    0.60571   1.00
H2       0.89111    0.77725    0.62261   1.00
C4       0.50517    -0.01559   0.61385   1.00
C4       0.53212    0.04030    0.62777   1.00
C3       0.46020    -0.02343   0.59773   1.00
C3       0.51200    0.09048    0.62812   1.00
C3       0.52301    -0.06740   0.61621   1.00
C3       0.58215    0.04709    0.64220   1.00
C2       0.45019    -0.13185   0.58695   1.00
C2       0.58789    0.15095    0.65671   1.00
C3       0.43314    -0.08013   0.58472   1.00
C3       0.53956    0.14466    0.64206   1.00
C3       0.49617    -0.12355   0.60269   1.00
C3       0.60711    0.10039    0.65667   1.00
H1       0.44597    0.01193    0.59493   1.00
H1       0.47643    0.08893    0.61834   1.00
C5       0.56776    -0.06264   0.63200   1.00
C5       0.60659    0.00041    0.64224   1.00
H1       0.40046    -0.08331   0.57343   1.00
H1       0.52354    0.17977    0.64149   1.00
H1       0.51091    -0.15934   0.60422   1.00
H1       0.63960    0.10202    0.66772   1.00
O3       0.57582    -0.11773   0.63634   1.00
O3       0.66395    0.01349    0.65319   1.00
Si1      0.52883    -0.17208   0.65382   1.00
Si1      0.73888    0.06050    0.64294   1.00
C6       0.55423    -0.23297   0.64924   1.00
C6       0.55876    -0.13197   0.67751   1.00
C6       0.44049    -0.20697   0.64975   1.00
C6       0.74313    0.09499    0.61857   1.00
C6       0.78084    0.12708    0.66049   1.00
C6       0.78006    0.01195    0.64289   1.00
C6       0.55414    -0.25303   0.62647   1.00
H2       0.60784    -0.20542   0.65372   1.00
C6       0.52154    -0.30200   0.66128   1.00
H2       0.61157    -0.09420   0.67404   1.00
C6       0.52637    -0.09099   0.68671   1.00
C6       0.56246    -0.17495   0.69555   1.00
H2       0.43524    -0.22128   0.63374   1.00
C6       0.39111    -0.27368   0.66162   1.00
C6       0.40768    -0.16047   0.65229   1.00
C6       0.70346    0.04456    0.60088   1.00
C6       0.73059    0.15668    0.61613   1.00
H2       0.79696    0.11676    0.61474   1.00
H2       0.75489    0.15650    0.65899   1.00
C6       0.77314    0.10570    0.68336   1.00
C6       0.85835    0.17813    0.65688   1.00
H2       0.79985    0.01743    0.65829   1.00
C6       0.73358    -0.06639   0.63974   1.00
C6       0.84269    0.03468    0.62845   1.00
H2       0.58529    -0.20826   0.61708   1.00
H2       0.50248    -0.27917   0.62024   1.00
H2       0.57538    -0.28678   0.62479   1.00
H2       0.55930    -0.31804   0.66355   1.00
H2       0.50278    -0.29849   0.67615   1.00
H2       0.47901    -0.34337   0.65311   1.00
H2       0.55838    -0.05731   0.69887   1.00
H2       0.52147    -0.05840   0.67551   1.00
H2       0.47618    -0.12511   0.69316   1.00
H2       0.59316    -0.19815   0.69165   1.00
H2       0.58667    -0.14303   0.70886   1.00
H2       0.51157    -0.21496   0.70007   1.00
H2       0.40118    -0.26721   0.67790   1.00
H2       0.33753    -0.28885   0.65925   1.00
H2       0.39569    -0.31671   0.65638   1.00
H2       0.39234    -0.15948   0.66793   1.00
H2       0.44113    -0.10802   0.64779   1.00
H2       0.36183    -0.17986   0.64292   1.00
H2       0.64997    0.03076    0.60065   1.00
H2       0.72515    0.06801    0.58623   1.00
H2       0.70597    -0.00213   0.60179   1.00
H2       0.74438    0.17813    0.60085   1.00
H2       0.67742    0.14200    0.61843   1.00
H2       0.76165    0.19818    0.62655   1.00
H2       0.79070    0.15041    0.69314   1.00
H2       0.71987    0.07073    0.68730   1.00
H2       0.80266    0.08112    0.68712   1.00
H2       0.86837    0.19746    0.64136   1.00
H2       0.87615    0.22237    0.66689   1.00
H2       0.88922    0.15448    0.66003   1.00
H2       0.70842    -0.07861   0.62500   1.00
H2       0.76236    -0.09312   0.64111   1.00
H2       0.69427    -0.08703   0.65133   1.00
H2       0.86983    0.00737    0.63204   1.00
H2       0.82685    0.02432    0.61258   1.00
H2       0.87946    0.08888    0.62996   1.00
C4       0.47924    0.49485    0.61385   1.00
C4       0.50818    0.46789    0.62777   1.00
C3       0.51642    0.53995    0.59777   1.00
C3       0.57851    0.48813    0.62815   1.00
C3       0.40954    0.47687    0.61617   1.00
C3       0.46491    0.41773    0.64216   1.00
C2       0.41795    0.54981    0.58695   1.00
C2       0.56305    0.41211    0.65671   1.00
C3       0.48678    0.56701    0.58475   1.00
C3       0.60511    0.46057    0.64210   1.00
C3       0.38023    0.50370    0.60265   1.00
C3       0.49323    0.39276    0.65664   1.00
H1       0.56605    0.55429    0.59499   1.00
H1       0.61255    0.52381    0.61840   1.00
C5       0.36950    0.43197    0.63194   1.00
C5       0.39376    0.39316    0.64217   1.00
H1       0.51631    0.59978    0.57348   1.00
H1       0.65628    0.47669    0.64155   1.00
H1       0.32967    0.48886    0.60416   1.00
H1       0.46233    0.36016    0.66766   1.00
O3       0.30627    0.42375    0.63624   1.00
O3       0.34948    0.33570    0.65308   1.00
Si1      0.29869    0.47057    0.65375   1.00
Si1      0.32175    0.26086    0.64279   1.00
C6       0.21240    0.44504    0.64912   1.00
C6       0.30879    0.44053    0.67743   1.00
C6       0.35204    0.55895    0.64973   1.00
C6       0.35220    0.25684    0.61843   1.00
C6       0.34638    0.21888    0.66033   1.00
C6       0.23202    0.21953    0.64269   1.00
C6       0.19256    0.44524    0.62634   1.00
H2       0.18640    0.39141    0.65357   1.00
C6       0.17587    0.47754    0.66116   1.00
H2       0.29387    0.38777    0.67393   1.00
C6       0.38211    0.47298    0.68667   1.00
C6       0.26195    0.43662    0.69544   1.00
H2       0.34306    0.56428    0.63372   1.00
C6       0.33450    0.60816    0.66161   1.00
C6       0.43135    0.59188    0.65232   1.00
C6       0.34146    0.29656    0.60075   1.00
C6       0.42649    0.26953    0.61602   1.00
H2       0.32024    0.20302    0.61457   1.00
H2       0.40176    0.24492    0.65886   1.00
C6       0.33253    0.22639    0.68320   1.00
C6       0.32008    0.14141    0.65668   1.00
H2       0.21764    0.19963    0.65808   1.00
C6       0.20005    0.26591    0.63955   1.00
C6       0.19230    0.15698    0.62820   1.00
H2       0.20632    0.41421    0.61695   1.00
H2       0.21802    0.49693    0.62014   1.00
H2       0.13756    0.42392    0.62464   1.00
H2       0.12208    0.43969    0.66340   1.00
H2       0.19802    0.49623    0.67604   1.00
H2       0.17700    0.52008    0.65301   1.00
H2       0.38376    0.44092    0.69881   1.00
H2       0.41970    0.47803    0.67549   1.00
H2       0.39805    0.52311    0.69314   1.00
H2       0.20808    0.40587    0.69151   1.00
H2       0.26964    0.41237    0.70875   1.00
H2       0.27270    0.48744    0.69999   1.00
H2       0.33083    0.59799    0.67789   1.00
H2       0.37287    0.66179    0.65928   1.00
H2       0.28689    0.60352    0.65635   1.00
H2       0.44756    0.60713    0.66796   1.00
H2       0.45046    0.55853    0.64780   1.00
H2       0.45780    0.63780    0.64297   1.00
H2       0.38107    0.35007    0.60055   1.00
H2       0.34337    0.27499    0.58609   1.00
H2       0.29221    0.29394    0.60165   1.00
H2       0.43430    0.25588    0.60074   1.00
H2       0.46491    0.32272    0.61835   1.00
H2       0.43695    0.23846    0.62644   1.00
H2       0.35967    0.20884    0.69299   1.00
H2       0.35070    0.27962    0.68717   1.00
H2       0.27841    0.19677    0.68693   1.00
H2       0.32952    0.13153    0.64116   1.00
H2       0.34652    0.12363    0.66670   1.00
H2       0.26554    0.11045    0.65980   1.00
H2       0.21304    0.29118    0.62482   1.00
H2       0.14454    0.23704    0.64088   1.00
H2       0.21858    0.30515    0.65115   1.00
H2       0.13783    0.12973    0.63176   1.00
H2       0.19786    0.17292    0.61234   1.00
H2       0.20982    0.12027    0.62971   1.00
C4       0.47755    -0.02142   0.11598   1.00
C4       0.50693    0.03598    0.12935   1.00
C3       0.50407    -0.06598   0.11329   1.00
C3       0.56914    0.05816    0.13994   1.00
C3       0.41896    -0.03492   0.10433   1.00
C3       0.47261    0.07366    0.13248   1.00
C2       0.41721    -0.13442   0.08789   1.00
C2       0.56379    0.15352    0.15577   1.00
C3       0.47500    -0.12070   0.09956   1.00
C3       0.59649    0.11492    0.15294   1.00
C3       0.38963    -0.09114   0.09083   1.00
C3       0.50252    0.13242    0.14496   1.00
H1       0.54514    -0.06013   0.12129   1.00
H1       0.59662    0.03400    0.13843   1.00
C5       0.38989    0.00764    0.10630   1.00
C5       0.40899    0.05297    0.12302   1.00
H1       0.49669    -0.15091   0.09815   1.00
H1       0.64134    0.12824    0.16034   1.00
H1       0.34650    -0.10132   0.08300   1.00
H1       0.47954    0.16135    0.14602   1.00
O3       0.34088    0.00153    0.09272   1.00
O3       0.36872    0.07994    0.12888   1.00
Si1      0.36322    0.05002    0.07259   1.00
Si1      0.31747    0.04617    0.14818   1.00
C6       0.28282    0.00951    0.06055   1.00
C6       0.38576    0.13293    0.08062   1.00
C6       0.42522    0.04470    0.05770   1.00
C6       0.31815    -0.02168   0.16124   1.00
C6       0.34289    0.11550    0.16472   1.00
C6       0.23446    0.02089    0.13962   1.00
C6       0.24559    -0.07033   0.05964   1.00
H2       0.25222    0.02132    0.07079   1.00
C6       0.27306    0.03250    0.03894   1.00
H2       0.35688    0.12274    0.09470   1.00
C6       0.46182    0.18320    0.08643   1.00
C6       0.36390    0.17585    0.06724   1.00
H2       0.40438    -0.01037   0.05660   1.00
C6       0.43490    0.07154    0.03535   1.00
C6       0.49999    0.07549    0.06599   1.00
C6       0.30321    -0.08658   0.14885   1.00
C6       0.37900    -0.00631   0.17574   1.00
H2       0.27494    -0.03854   0.17154   1.00
H2       0.39282    0.12610    0.17010   1.00
C6       0.35506    0.18361    0.15486   1.00
C6       0.29832    0.10385    0.18405   1.00
H2       0.23215    0.06790    0.13983   1.00
C6       0.21774    -0.00503   0.11730   1.00
C6       0.17280    -0.03173   0.15273   1.00
H2       0.23989    -0.09247   0.07473   1.00
H2       0.27363    -0.08771   0.05021   1.00
H2       0.19422    -0.09155   0.05339   1.00
H2       0.22208    0.02621    0.03764   1.00
H2       0.30964    0.08557    0.03568   1.00
H2       0.27731    0.00183    0.02686   1.00
H2       0.46625    0.22645    0.09508   1.00
H2       0.48293    0.15908    0.09597   1.00
H2       0.49364    0.20361    0.07293   1.00
H2       0.30891    0.14890    0.06471   1.00
H2       0.37629    0.22395    0.07464   1.00
H2       0.38991    0.18825    0.05259   1.00
H2       0.44455    0.12384    0.03488   1.00
H2       0.47744    0.07064    0.02777   1.00
H2       0.39045    0.03944    0.02612   1.00
H2       0.53162    0.12945    0.06225   1.00
H2       0.50257    0.07108    0.08229   1.00
H2       0.52439    0.04897    0.05923   1.00
H2       0.34873    -0.08020   0.14123   1.00
H2       0.28547    -0.13066   0.15889   1.00
H2       0.26372    -0.09968   0.13747   1.00
H2       0.36747    -0.05135   0.18478   1.00
H2       0.42583    0.00786    0.16749   1.00
H2       0.38915    0.03417    0.18654   1.00
H2       0.38155    0.22607    0.16547   1.00
H2       0.38713    0.19636    0.14135   1.00
H2       0.30733    0.18110    0.15055   1.00
H2       0.28885    0.05818    0.19231   1.00
H2       0.32439    0.14682    0.19453   1.00
H2       0.24933    0.09937    0.18019   1.00
H2       0.22094    -0.05099   0.11489   1.00
H2       0.16684    -0.01582   0.11283   1.00
H2       0.25364    0.03397    0.10707   1.00
H2       0.12523    -0.03519   0.14760   1.00
H2       0.16655    -0.08272   0.15172   1.00
H2       0.17885    -0.01694   0.16866   1.00
C4       1.01900    0.49040    0.11512   1.00
C4       0.96292    0.46369    0.12898   1.00
C3       1.07285    0.47553    0.11623   1.00
C3       0.95826    0.42459    0.14637   1.00
C3       1.02251    0.53539    0.09940   1.00
C3       0.90801    0.47626    0.12538   1.00
C2       1.13236    0.54915    0.08714   1.00
C2       0.84854    0.41277    0.15652   1.00
C3       1.12817    0.50436    0.10271   1.00
C3       0.90236    0.39927    0.15967   1.00
C3       1.07811    0.56294    0.08567   1.00
C3       0.85357    0.45278    0.13943   1.00
H1       1.07332    0.44312    0.12686   1.00
H1       0.99553    0.41370    0.14997   1.00
C5       0.97033    0.55233    0.09744   1.00
C5       0.90790    0.51268    0.10791   1.00
H1       1.16588    0.49213    0.10434   1.00
H1       0.90146    0.37080    0.17190   1.00
H1       1.07898    0.59363    0.07413   1.00
H1       0.81687    0.46591    0.13734   1.00
O3       0.97940    0.60411    0.08454   1.00
O3       0.84988    0.51379    0.10203   1.00
Si1      1.01038    0.68153    0.09327   1.00
Si1      0.79328    0.45133    0.08819   1.00
C6       1.02044    0.72224    0.06966   1.00
C6       0.94599    0.68317    0.10787   1.00
C6       1.08943    0.71241    0.10574   1.00
C6       0.80767    0.38350    0.08212   1.00
C6       0.71845    0.42011    0.10265   1.00
C6       0.78234    0.48754    0.06587   1.00
C6       1.05567    0.70259    0.05257   1.00
H2       0.96769    0.70142    0.06470   1.00
C6       1.05346    0.80178    0.06822   1.00
H2       0.89983    0.64129    0.10126   1.00
C6       0.94236    0.66698    0.13106   1.00
C6       0.93693    0.74718    0.10642   1.00
H2       1.11789    0.69926    0.09503   1.00
C6       1.13343    0.79134    0.10910   1.00
C6       1.09224    0.68107    0.12675   1.00
C6       0.87522    0.40090    0.07084   1.00
C6       0.79698    0.32969    0.09878   1.00
H2       0.76704    0.35421    0.07123   1.00
H2       0.72765    0.39581    0.11561   1.00
C6       0.70355    0.47500    0.11193   1.00
C6       0.65046    0.36462    0.09270   1.00
H2       0.74773    0.50565    0.07036   1.00
C6       0.84693    0.55189    0.05757   1.00
C6       0.74826    0.43969    0.04717   1.00
H2       1.02927    0.64755    0.05006   1.00
H2       1.10870    0.71927    0.05641   1.00
H2       1.05521    0.72586    0.03809   1.00
H2       1.03025    0.81507    0.05579   1.00
H2       1.04701    0.82435    0.08198   1.00
H2       1.10805    0.82711    0.06500   1.00
H2       0.89299    0.65537    0.13734   1.00
H2       0.94765    0.62259    0.13405   1.00
H2       0.98173    0.71034    0.13947   1.00
H2       0.92879    0.75725    0.09079   1.00
H2       0.89220    0.73962    0.11494   1.00
H2       0.98128    0.79241    0.11257   1.00
H2       1.10414    0.81096    0.11684   1.00
H2       1.17908    0.80526    0.11815   1.00
H2       1.15228    0.81821    0.09481   1.00
H2       1.08340    0.70664    0.13944   1.00
H2       1.05547    0.62722    0.12811   1.00
H2       1.14264    0.68660    0.12899   1.00
H2       0.91769    0.41709    0.08134   1.00
H2       0.86958    0.35604    0.06286   1.00
H2       0.88930    0.44081    0.05955   1.00
H2       0.79834    0.28624    0.09204   1.00
H2       0.83645    0.35060    0.11036   1.00
H2       0.74756    0.30893    0.10624   1.00
H2       0.66312    0.45186    0.12332   1.00
H2       0.74844    0.51537    0.11959   1.00
H2       0.68734    0.49854    0.10043   1.00
H2       0.65549    0.32291    0.08630   1.00
H2       0.60977    0.34221    0.10404   1.00
H2       0.63374    0.38629    0.08073   1.00
H2       0.88693    0.54093    0.05322   1.00
H2       0.83497    0.57346    0.04444   1.00
H2       0.86757    0.59122    0.06915   1.00
H2       0.73490    0.46544    0.03553   1.00
H2       0.78247    0.42450    0.04023   1.00
H2       0.70116    0.39365    0.05134   1.00
C4       0.50990    0.52831    0.11490   1.00
C4       0.53671    0.49913    0.12879   1.00
C3       0.53278    0.59916    0.11388   1.00
C3       0.58451    0.53693    0.14425   1.00
C3       0.45649    0.48455    0.10141   1.00
C3       0.51506    0.42829    0.12727   1.00
C2       0.45074    0.58293    0.08707   1.00
C2       0.58734    0.43607    0.15659   1.00
C3       0.50379    0.62572    0.10044   1.00
C3       0.60964    0.50645    0.15765   1.00
C3       0.42879    0.51249    0.08769   1.00
C3       0.53877    0.39796    0.14147   1.00
H1       0.57134    0.63358    0.12283   1.00
H1       0.60216    0.58763    0.14632   1.00
C5       0.43129    0.41321    0.10164   1.00
C5       0.46945    0.38791    0.11172   1.00
H1       0.52207    0.67734    0.10049   1.00
H1       0.64457    0.53642    0.16842   1.00
H1       0.39182    0.48072    0.07772   1.00
H1       0.51948    0.34639    0.14099   1.00
O3       0.37265    0.37019    0.09113   1.00
O3       0.45845    0.32340    0.10746   1.00
Si1      0.29904    0.33519    0.10269   1.00
Si1      0.51098    0.31566    0.09223   1.00
C6       0.24760    0.29917    0.08101   1.00
C6       0.29537    0.27152    0.11890   1.00
C6       0.28191    0.39507    0.11446   1.00
C6       0.58139    0.39072    0.08258   1.00
C6       0.54040    0.27110    0.10699   1.00
C6       0.46215    0.26214    0.07215   1.00
C6       0.26543    0.34767    0.06223   1.00
H2       0.26068    0.26073    0.07647   1.00
C6       0.16771    0.26040    0.08255   1.00
H2       0.33068    0.25871    0.11154   1.00
C6       0.32171    0.29164    0.14117   1.00
C6       0.22645    0.20263    0.12078   1.00
H2       0.29476    0.43294    0.10248   1.00
C6       0.20608    0.37031    0.12044   1.00
C6       0.32404    0.43503    0.13368   1.00
C6       0.56689    0.44154    0.07049   1.00
C6       0.64355    0.43538    0.09676   1.00
H2       0.60237    0.37051    0.07145   1.00
H2       0.57254    0.30818    0.11841   1.00
C6       0.48487    0.20863    0.11921   1.00
C6       0.58582    0.24646    0.09624   1.00
H2       0.44068    0.21078    0.07837   1.00
C6       0.39928    0.26791    0.06536   1.00
C6       0.50013    0.26281    0.05222   1.00
H2       0.31878    0.36938    0.05778   1.00
H2       0.25625    0.38976    0.06545   1.00
H2       0.23483    0.32014    0.04902   1.00
H2       0.14558    0.21887    0.07149   1.00
H2       0.14904    0.23827    0.09743   1.00
H2       0.14667    0.29343    0.07916   1.00
H2       0.33031    0.25271    0.14812   1.00
H2       0.37021    0.33914    0.14186   1.00
H2       0.28476    0.29664    0.15057   1.00
H2       0.20824    0.17868    0.10600   1.00
H2       0.23234    0.16576    0.13002   1.00
H2       0.18720    0.21028    0.12789   1.00
H2       0.18507    0.32445    0.12982   1.00
H2       0.20107    0.40919    0.12889   1.00
H2       0.17422    0.35991    0.10710   1.00
H2       0.30147    0.40720    0.14771   1.00
H2       0.37647    0.44624    0.13340   1.00
H2       0.32555    0.48396    0.13485   1.00
H2       0.55972    0.47557    0.08056   1.00
H2       0.60987    0.47366    0.06058   1.00
H2       0.52202    0.41533    0.06086   1.00
H2       0.68645    0.47406    0.08796   1.00
H2       0.63149    0.46233    0.10821   1.00
H2       0.66224    0.40526    0.10443   1.00
H2       0.50885    0.19171    0.13043   1.00
H2       0.45142    0.22189    0.12757   1.00
H2       0.45324    0.16542    0.10937   1.00
H2       0.62750    0.28755    0.08777   1.00
H2       0.60899    0.22858    0.10745   1.00
H2       0.55591    0.20425    0.08586   1.00
H2       0.41399    0.31843    0.05948   1.00
H2       0.36959    0.23035    0.05371   1.00
H2       0.36553    0.25809    0.07818   1.00
H2       0.46650    0.22053    0.04229   1.00
H2       0.51746    0.31011    0.04373   1.00
H2       0.54425    0.25706    0.05537   1.00
C4       0.64542    0.81130    0.71743   1.00
C4       0.70284    0.84058    0.70406   1.00
C3       0.60409    0.84086    0.72131   1.00
C3       0.72834    0.90531    0.69469   1.00
C3       0.62853    0.74953    0.72783   1.00
C3       0.73702    0.80353    0.69965   1.00
C2       0.53224    0.75071    0.74545   1.00
C2       0.82018    0.89697    0.67757   1.00
C3       0.54930    0.81165    0.73501   1.00
C3       0.78500    0.93248    0.68166   1.00
C3       0.57227    0.72019    0.74131   1.00
C3       0.79578    0.83309    0.68717   1.00
H1       0.61244    0.88436    0.71423   1.00
H1       0.70678    0.93481    0.69716   1.00
C5       0.66777    0.71732    0.72464   1.00
C5       0.71287    0.73749    0.70784   1.00
H1       0.52151    0.83560    0.73731   1.00
H1       0.80081    0.97926    0.67518   1.00
H1       0.55961    0.67489    0.74823   1.00
H1       0.82223    0.80784    0.68520   1.00
O3       0.65864    0.66455    0.73710   1.00
O3       0.73633    0.69555    0.70069   1.00
Si1      0.70684    0.68033    0.75709   1.00
Si1      0.70047    0.64892    0.68065   1.00
C6       0.66244    0.59777    0.76771   1.00
C6       0.78843    0.69988    0.74856   1.00
C6       0.70566    0.74140    0.77349   1.00
C6       0.63503    0.65660    0.66850   1.00
C6       0.76916    0.67402    0.66387   1.00
C6       0.67063    0.56342    0.68753   1.00
C6       0.58290    0.56438    0.76874   1.00
H2       0.67190    0.56763    0.75662   1.00
C6       0.68393    0.58186    0.78874   1.00
H2       0.77677    0.67369    0.73397   1.00
C6       0.84195    0.77608    0.74395   1.00
C6       0.82841    0.67193    0.76085   1.00
H2       0.65111    0.72325    0.77479   1.00
C6       0.73212    0.74509    0.79567   1.00
C6       0.74029    0.81803    0.76660   1.00
C6       0.57131    0.64284    0.68133   1.00
C6       0.65388    0.72116    0.65528   1.00
H2       0.61598    0.61533    0.65740   1.00
H2       0.78266    0.72579    0.65955   1.00
C6       0.83570    0.68019    0.67313   1.00
C6       0.75510    0.63286    0.64368   1.00
H2       0.71589    0.55809    0.68667   1.00
C6       0.64441    0.54332    0.70973   1.00
C6       0.61585    0.50602    0.67365   1.00
H2       0.56121    0.56299    0.75383   1.00
H2       0.56789    0.59240    0.77903   1.00
H2       0.55904    0.51162    0.77402   1.00
H2       0.67454    0.52957    0.78890   1.00
H2       0.73755    0.61545    0.79219   1.00
H2       0.65452    0.58573    0.80129   1.00
H2       0.88404    0.77965    0.73487   1.00
H2       0.82005    0.80127    0.73523   1.00
H2       0.86366    0.80476    0.75791   1.00
H2       0.79879    0.61658    0.76241   1.00
H2       0.87570    0.68312    0.75315   1.00
H2       0.84202    0.69491    0.77593   1.00
H2       0.78327    0.75159    0.79571   1.00
H2       0.73398    0.78736    0.80426   1.00
H2       0.69819    0.69955    0.80423   1.00
H2       0.79445    0.84636    0.77040   1.00
H2       0.73626    0.82428    0.75047   1.00
H2       0.71623    0.84344    0.77427   1.00
H2       0.58040    0.68770    0.68993   1.00
H2       0.52762    0.62945    0.67144   1.00
H2       0.55605    0.60074    0.69190   1.00
H2       0.60967    0.71400    0.64656   1.00
H2       0.67057    0.76674    0.66444   1.00
H2       0.69369    0.73123    0.64423   1.00
H2       0.87847    0.70690    0.66264   1.00
H2       0.85004    0.70962    0.68721   1.00
H2       0.83016    0.63039    0.67633   1.00
H2       0.71039    0.62771    0.63579   1.00
H2       0.79833    0.65908    0.63330   1.00
H2       0.74757    0.58198    0.64642   1.00
H2       0.60022    0.54904    0.71279   1.00
H2       0.63067    0.49075    0.71311   1.00
H2       0.68437    0.57568    0.72030   1.00
H2       0.60940    0.45627    0.67769   1.00
H2       0.56619    0.50263    0.67516   1.00
H2       0.63060    0.51454    0.65772   1.00
C4       0.16598    0.35183    0.71845   1.00
C4       0.13708    0.29468    0.70498   1.00
C3       0.21154    0.36005    0.73442   1.00
C3       0.14589    0.23719    0.70727   1.00
C3       0.14786    0.40346    0.71615   1.00
C3       0.09717    0.29443    0.68818   1.00
C2       0.21956    0.46719    0.74567   1.00
C2       0.07568    0.18039    0.67735   1.00
C3       0.23731    0.41592    0.74773   1.00
C3       0.11658    0.18189    0.69374   1.00
C3       0.17542    0.46008    0.72950   1.00
C3       0.06569    0.23692    0.67523   1.00
H1       0.22751    0.32582    0.73681   1.00
H1       0.17349    0.23360    0.71891   1.00
C5       0.10257    0.39835    0.70048   1.00
C5       0.08834    0.35119    0.68449   1.00
H1       0.26968    0.41890    0.75910   1.00
H1       0.12517    0.14197    0.69605   1.00
H1       0.16346    0.49766    0.72732   1.00
H1       0.03374    0.23564    0.66406   1.00
O3       0.07641    0.44175    0.70038   1.00
O3       0.06180    0.35802    0.66633   1.00
Si1      0.00290    0.41826    0.71108   1.00
Si1      0.11302    0.39251    0.64706   1.00
C6       0.00567    0.49734    0.70908   1.00
C6       -0.06080   0.35633    0.69529   1.00
C6       -0.00076   0.39370    0.73668   1.00
C6       0.19983    0.41685    0.65013   1.00
C6       0.07644    0.32940    0.62826   1.00
C6       0.10565    0.46291    0.63920   1.00
C6       0.07403    0.56150    0.71588   1.00
H2       0.00295    0.50266    0.69270   1.00
C6       -0.05247   0.50770    0.71828   1.00
H2       -0.03566   0.36891    0.68053   1.00
C6       -0.08377   0.27959    0.69904   1.00
C6       -0.12851   0.35795    0.69224   1.00
H2       0.04674    0.43532    0.74280   1.00
C6       -0.05938   0.39065    0.75008   1.00
C6       -0.00109   0.32579    0.74189   1.00
C6       0.24088    0.46817    0.66750   1.00
C6       0.22104    0.36076    0.65054   1.00
H2       0.22243    0.44445    0.63608   1.00
H2       0.08573    0.28923    0.63366   1.00
C6       -0.00277   0.29463    0.62572   1.00
C6       0.10755    0.34852    0.60645   1.00
H2       0.05940    0.44033    0.62999   1.00
C6       0.09277    0.50289    0.65624   1.00
C6       0.16343    0.51796    0.62548   1.00
H2       0.11773    0.56509    0.70775   1.00
H2       0.08288    0.55999    0.73212   1.00
H2       0.07346    0.60860    0.71272   1.00
H2       -0.05992   0.54331    0.70892   1.00
H2       -0.10117   0.46061    0.71920   1.00
H2       -0.04010   0.52957    0.73351   1.00
H2       -0.11176   0.24851    0.68595   1.00
H2       -0.04058   0.27173    0.70129   1.00
H2       -0.11736   0.25958    0.71220   1.00
H2       -0.11853   0.40744    0.68662   1.00
H2       -0.16139   0.32043    0.68095   1.00
H2       -0.15737   0.34645    0.70637   1.00
H2       -0.10917   0.35851    0.74309   1.00
H2       -0.06053   0.37046    0.76525   1.00
H2       -0.05231   0.44120    0.75259   1.00
H2       -0.05254   0.28167    0.74188   1.00
H2       0.02899    0.31439    0.73153   1.00
H2       0.02000    0.32919    0.75705   1.00
H2       0.23323    0.44248    0.68203   1.00
H2       0.29556    0.49405    0.66428   1.00
H2       0.22715    0.50761    0.66921   1.00
H2       0.27651    0.38404    0.64962   1.00
H2       0.20508    0.33077    0.66442   1.00
H2       0.20037    0.32597    0.63769   1.00
H2       -0.02194   0.24889    0.61631   1.00
H2       -0.02883   0.27836    0.64034   1.00
H2       -0.01784   0.32855    0.61857   1.00
H2       0.16291    0.37143    0.60668   1.00
H2       0.08757    0.30288    0.59695   1.00
H2       0.09481    0.38389    0.59906   1.00
H2       0.13481    0.52602    0.66703   1.00
H2       0.08484    0.54309    0.65000   1.00
H2       0.04692    0.46852    0.66458   1.00
H2       0.14805    0.55287    0.61914   1.00
H2       0.21041    0.54843    0.63406   1.00
H2       0.17492    0.49493    0.61267   1.00
C4       0.18591    0.83392    0.71838   1.00
C4       0.15761    0.86280    0.70492   1.00
C3       0.14781    0.78599    0.73378   1.00
C3       0.09020    0.85144    0.70670   1.00
C3       0.25648    0.85453    0.71669   1.00
C3       0.19838    0.90537    0.68869   1.00
C2       0.24770    0.78046    0.74565   1.00
C2       0.10462    0.92430    0.67737   1.00
C3       0.17789    0.76027    0.74711   1.00
C3       0.06419    0.88081    0.69320   1.00
C3       0.28556    0.82701    0.73005   1.00
C3       0.17219    0.93680    0.67578   1.00
H1       0.09703    0.76819    0.73571   1.00
H1       0.05816    0.82185    0.71793   1.00
C5       0.29745    0.90227    0.70162   1.00
C5       0.26523    0.91689    0.68551   1.00
H1       0.14790    0.72611    0.75805   1.00
H1       0.01488    0.87032    0.69511   1.00
H1       0.33579    0.84083    0.72829   1.00
H1       0.20347    0.97057    0.66505   1.00
O3       0.36727    0.93050    0.70218   1.00
O3       0.30028    0.94629    0.66778   1.00
Si1      0.41418    1.00316    0.71372   1.00
Si1      0.28739    0.89773    0.64807   1.00
C6       0.49218    1.00350    0.71223   1.00
C6       0.41538    1.06753    0.69839   1.00
C6       0.38985    1.00296    0.73918   1.00
C6       0.22673    0.80994    0.65011   1.00
C6       0.26116    0.93482    0.62934   1.00
C6       0.36715    0.90875    0.64080   1.00
C6       0.48971    0.93553    0.71853   1.00
H2       0.50214    1.00840    0.69593   1.00
C6       0.55865    1.06194    0.72229   1.00
H2       0.40524    1.04416    0.68338   1.00
C6       0.35935    1.08762    0.70192   1.00
C6       0.48375    1.13685    0.69627   1.00
H2       0.38495    0.95544    0.74493   1.00
C6       0.44266    1.06090    0.75335   1.00
C6       0.32046    1.00017    0.74392   1.00
C6       0.23675    0.76803    0.66725   1.00
C6       0.14881    0.78624    0.64984   1.00
H2       0.23428    0.78963    0.63595   1.00
H2       0.21054    0.92325    0.63433   1.00
C6       0.30368    1.01442    0.62765   1.00
C6       0.25262    0.90645    0.60726   1.00
H2       0.39055    0.95606    0.63207   1.00
C6       0.41852    0.92132    0.65827   1.00
C6       0.36813    0.85363    0.62668   1.00
H2       0.45146    0.89215    0.70983   1.00
H2       0.47765    0.92455    0.73463   1.00
H2       0.53858    0.93822    0.71570   1.00
H2       0.60327    1.07195    0.71329   1.00
H2       0.55834    1.10964    0.72355   1.00
H2       0.56705    1.04838    0.73749   1.00
H2       0.35665    1.11649    0.68900   1.00
H2       0.30878    1.04312    0.70351   1.00
H2       0.37041    1.11951    0.71539   1.00
H2       0.52497    1.12918    0.69087   1.00
H2       0.47906    1.17023    0.68519   1.00
H2       0.49870    1.16411    0.71072   1.00
H2       0.45954    1.11119    0.74682   1.00
H2       0.42149    1.05953    0.76838   1.00
H2       0.48689    1.05528    0.75611   1.00
H2       0.32597    1.05087    0.74431   1.00
H2       0.28056    0.97036    0.73308   1.00
H2       0.30151    0.97704    0.75880   1.00
H2       0.21643    0.77315    0.68170   1.00
H2       0.20987    0.71374    0.66347   1.00
H2       0.29014    0.78325    0.66942   1.00
H2       0.11826    0.73078    0.64832   1.00
H2       0.13234    0.79973    0.66372   1.00
H2       0.13512    0.80750    0.63704   1.00
H2       0.27698    1.03334    0.61819   1.00
H2       0.31098    1.03860    0.64250   1.00
H2       0.35378    1.03185    0.62095   1.00
H2       0.22166    0.85095    0.60688   1.00
H2       0.22683    0.92621    0.59772   1.00
H2       0.30194    0.92159    0.60029   1.00
H2       0.39963    0.87814    0.66865   1.00
H2       0.46792    0.93161    0.65243   1.00
H2       0.42751    0.96571    0.66700   1.00
H2       0.41946    0.87131    0.62079   1.00
H2       0.35212    0.80594    0.63482   1.00
H2       0.33490    0.84259    0.61356   1.00
