data_IRMOF10_interpen_symm_ligand11lp_label_f_1.

_audit_creation_method             'generated by an auxiliary program of Tobunporous'

_symmetry_space_group_name_H-M     'P 1'
_symmetry_Int_Tables_number        1
_symmetry_cell_setting             triclinic

_cell_length_a                    22.6523
_cell_length_b                    22.6523
_cell_length_c                    65.9502
_cell_angle_alpha                 90.0000
_cell_angle_beta                  90.0000
_cell_angle_gamma                 120.0000

loop_
_atom_site_label
_atom_site_fract_x
_atom_site_fract_y
_atom_site_fract_z
_atom_site_occupancy
O1       0.00000    -0.00000   0.62500   1.00
Zn1      0.00000    -0.00000   0.59589   1.00
Zn1      0.94848    1.04288    0.63392   1.00
Zn1      0.09439    0.05152    0.63392   1.00
Zn1      -0.04288   0.90561    0.63392   1.00
O2       0.93860    0.02610    0.58587   1.00
O2       0.08750    0.06140    0.58587   1.00
O2       -0.02610   0.91250    0.58587   1.00
O2       0.91305    0.07161    0.61181   1.00
O2       0.00462    0.12022    0.65110   1.00
O2       0.87413    0.98074    0.65071   1.00
O2       0.15856    0.08695    0.61181   1.00
O2       0.10660    0.12587    0.65071   1.00
O2       0.11559    0.99538    0.65110   1.00
O2       -0.07161   0.84144    0.61181   1.00
O2       0.87978    0.88441    0.65110   1.00
O2       0.01926    0.89340    0.65071   1.00
C1       0.91390    0.06020    0.59358   1.00
C1       0.14630    0.08610    0.59358   1.00
C1       -0.06020   0.85370    0.59358   1.00
C1       0.06663    0.14397    0.65673   1.00
C1       0.85603    0.92267    0.65673   1.00
C1       0.07733    0.93337    0.65673   1.00
O1       -0.00000   0.00000    0.87500   1.00
Zn1      -0.00000   0.00000    0.90411   1.00
Zn1      1.04288    0.94848    0.86608   1.00
Zn1      0.05152    0.09439    0.86608   1.00
Zn1      0.90561    -0.04288   0.86608   1.00
O2       0.02610    0.93860    0.91413   1.00
O2       0.06140    0.08750    0.91413   1.00
O2       0.91250    -0.02610   0.91413   1.00
O2       0.07161    0.91305    0.88819   1.00
O2       0.12022    0.00462    0.84890   1.00
O2       0.98074    0.87413    0.84929   1.00
O2       0.08695    0.15856    0.88819   1.00
O2       0.12587    0.10660    0.84929   1.00
O2       0.99538    0.11559    0.84890   1.00
O2       0.84144    -0.07161   0.88819   1.00
O2       0.88441    0.87978    0.84890   1.00
O2       0.89340    0.01926    0.84929   1.00
C1       0.06020    0.91390    0.90642   1.00
C1       0.08610    0.14630    0.90642   1.00
C1       0.85370    -0.06020   0.90642   1.00
C1       0.14397    0.06663    0.84327   1.00
C1       0.92267    0.85603    0.84327   1.00
C1       0.93337    0.07733    0.84327   1.00
O1       0.00000    0.00000    0.37500   1.00
Zn1      0.00000    0.00000    0.40411   1.00
Zn1      0.05152    -0.04288   0.36608   1.00
Zn1      0.90561    0.94848    0.36608   1.00
Zn1      1.04288    0.09439    0.36608   1.00
O2       0.06140    -0.02610   0.41413   1.00
O2       0.91250    0.93860    0.41413   1.00
O2       0.02610    0.08750    0.41413   1.00
O2       0.08695    -0.07161   0.38819   1.00
O2       0.99538    0.87978    0.34890   1.00
O2       0.12587    0.01926    0.34929   1.00
O2       0.84144    0.91305    0.38819   1.00
O2       0.89340    0.87413    0.34929   1.00
O2       0.88441    0.00462    0.34890   1.00
O2       0.07161    0.15856    0.38819   1.00
O2       0.12022    0.11559    0.34890   1.00
O2       0.98074    0.10660    0.34929   1.00
C1       0.08610    -0.06020   0.40642   1.00
C1       0.85370    0.91390    0.40642   1.00
C1       0.06020    0.14630    0.40642   1.00
C1       0.93337    0.85603    0.34327   1.00
C1       0.14397    0.07733    0.34327   1.00
C1       0.92267    0.06663    0.34327   1.00
O1       0.00000    0.00000    0.12500   1.00
Zn1      0.00000    0.00000    0.09589   1.00
Zn1      -0.04288   0.05152    0.13392   1.00
Zn1      0.94848    0.90561    0.13392   1.00
Zn1      0.09439    1.04288    0.13392   1.00
O2       -0.02610   0.06140    0.08587   1.00
O2       0.93860    0.91250    0.08587   1.00
O2       0.08750    0.02610    0.08587   1.00
O2       -0.07161   0.08695    0.11181   1.00
O2       0.87978    0.99538    0.15110   1.00
O2       0.01926    0.12587    0.15071   1.00
O2       0.91305    0.84144    0.11181   1.00
O2       0.87413    0.89340    0.15071   1.00
O2       0.00462    0.88441    0.15110   1.00
O2       0.15856    0.07161    0.11181   1.00
O2       0.11559    0.12022    0.15110   1.00
O2       0.10660    0.98074    0.15071   1.00
C1       -0.06020   0.08610    0.09358   1.00
C1       0.91390    0.85370    0.09358   1.00
C1       0.14630    0.06020    0.09358   1.00
C1       0.85603    0.93337    0.15673   1.00
C1       0.07733    0.14397    0.15673   1.00
C1       0.06663    0.92267    0.15673   1.00
O1       0.66667    0.33333    0.95833   1.00
Zn1      0.66667    0.33333    0.92922   1.00
Zn1      0.61515    0.37621    0.96725   1.00
Zn1      0.76106    0.38485    0.96725   1.00
Zn1      -0.37621   0.23894    0.96725   1.00
O2       0.60527    0.35943    0.91920   1.00
O2       0.75417    0.39473    0.91920   1.00
O2       0.64057    0.24583    0.91920   1.00
O2       0.57972    0.40494    0.94514   1.00
O2       0.67129    0.45355    0.98443   1.00
O2       0.54080    0.31407    0.98404   1.00
O2       0.82523    0.42028    0.94514   1.00
O2       0.77327    0.45920    0.98404   1.00
O2       -0.21774   0.32871    0.98443   1.00
O2       0.59506    0.17477    0.94514   1.00
O2       0.54645    0.21774    0.98443   1.00
O2       -0.31407   0.22673    0.98404   1.00
C1       0.58057    0.39353    0.92691   1.00
C1       0.81297    0.41943    0.92691   1.00
C1       0.60647    0.18703    0.92691   1.00
C1       0.73330    0.47730    0.99006   1.00
C1       0.52270    0.25600    0.99006   1.00
C1       -0.25600   0.26670    0.99006   1.00
O1       0.66667    0.33333    0.20833   1.00
Zn1      0.66667    0.33333    0.23744   1.00
Zn1      0.70954    0.28182    0.19942   1.00
Zn1      0.71818    0.42773    0.19942   1.00
Zn1      0.57227    0.29046    0.19942   1.00
O2       0.69277    0.27193    0.24746   1.00
O2       0.72807    0.42083    0.24746   1.00
O2       0.57917    0.30723    0.24746   1.00
O2       0.73828    0.24638    0.22152   1.00
O2       0.78688    0.33796    0.18224   1.00
O2       0.64740    0.20747    0.18263   1.00
O2       0.75362    0.49189    0.22152   1.00
O2       0.79253    0.43994    0.18263   1.00
O2       0.66204    0.44893    0.18224   1.00
O2       0.50811    0.26172    0.22152   1.00
O2       0.55107    0.21312    0.18224   1.00
O2       0.56006    0.35260    0.18263   1.00
C1       0.72687    0.24723    0.23975   1.00
C1       0.75277    0.47963    0.23975   1.00
C1       0.52037    0.27313    0.23975   1.00
C1       0.81063    0.39997    0.17661   1.00
C1       0.58933    0.18937    0.17661   1.00
C1       0.60003    0.41067    0.17661   1.00
O1       0.66667    0.33333    0.70833   1.00
Zn1      0.66667    0.33333    0.73744   1.00
Zn1      0.71818    0.29046    0.69942   1.00
Zn1      0.57227    0.28182    0.69942   1.00
Zn1      0.70954    0.42773    0.69942   1.00
O2       0.72807    0.30723    0.74746   1.00
O2       0.57917    0.27193    0.74746   1.00
O2       0.69277    0.42083    0.74746   1.00
O2       0.75362    0.26172    0.72152   1.00
O2       0.66204    0.21312    0.68224   1.00
O2       0.79253    0.35260    0.68263   1.00
O2       0.50811    0.24638    0.72152   1.00
O2       0.56006    0.20747    0.68263   1.00
O2       0.55107    0.33796    0.68224   1.00
O2       0.73828    0.49189    0.72152   1.00
O2       0.78688    0.44893    0.68224   1.00
O2       0.64740    0.43994    0.68263   1.00
C1       0.75277    0.27313    0.73975   1.00
C1       0.52037    0.24723    0.73975   1.00
C1       0.72687    0.47963    0.73975   1.00
C1       0.60003    0.18937    0.67661   1.00
C1       0.81063    0.41067    0.67661   1.00
C1       0.58933    0.39997    0.67661   1.00
O1       0.66667    0.33333    0.45833   1.00
Zn1      0.66667    0.33333    0.42922   1.00
Zn1      -0.37621   0.38485    0.46725   1.00
Zn1      0.61515    0.23894    0.46725   1.00
Zn1      0.76106    0.37621    0.46725   1.00
O2       0.64057    0.39473    0.41920   1.00
O2       0.60527    0.24583    0.41920   1.00
O2       0.75417    0.35943    0.41920   1.00
O2       0.59506    0.42028    0.44514   1.00
O2       0.54645    0.32871    0.48443   1.00
O2       -0.31407   0.45920    0.48404   1.00
O2       0.57972    0.17477    0.44514   1.00
O2       0.54080    0.22673    0.48404   1.00
O2       0.67129    0.21774    0.48443   1.00
O2       0.82523    0.40494    0.44514   1.00
O2       -0.21774   0.45355    0.48443   1.00
O2       0.77327    0.31407    0.48404   1.00
C1       0.60647    0.41943    0.42691   1.00
C1       0.58057    0.18703    0.42691   1.00
C1       0.81297    0.39353    0.42691   1.00
C1       0.52270    0.26670    0.49006   1.00
C1       -0.25600   0.47730    0.49006   1.00
C1       0.73330    0.25600    0.49006   1.00
O1       0.33333    0.66667    0.29167   1.00
Zn1      0.33333    0.66667    0.26256   1.00
Zn1      0.28182    0.70954    0.30058   1.00
Zn1      0.42773    0.71818    0.30058   1.00
Zn1      0.29046    0.57227    0.30058   1.00
O2       0.27193    0.69277    0.25254   1.00
O2       0.42083    0.72807    0.25254   1.00
O2       0.30723    0.57917    0.25254   1.00
O2       0.24638    0.73828    0.27848   1.00
O2       0.33796    0.78688    0.31776   1.00
O2       0.20747    0.64740    0.31737   1.00
O2       0.49189    0.75362    0.27848   1.00
O2       0.43994    0.79253    0.31737   1.00
O2       0.44893    0.66204    0.31776   1.00
O2       0.26172    0.50811    0.27848   1.00
O2       0.21312    0.55107    0.31776   1.00
O2       0.35260    0.56006    0.31737   1.00
C1       0.24723    0.72687    0.26025   1.00
C1       0.47963    0.75277    0.26025   1.00
C1       0.27313    0.52037    0.26025   1.00
C1       0.39997    0.81063    0.32339   1.00
C1       0.18937    0.58933    0.32339   1.00
C1       0.41067    0.60003    0.32339   1.00
O1       0.33333    0.66667    0.54167   1.00
Zn1      0.33333    0.66667    0.57078   1.00
Zn1      0.37621    0.61515    0.53275   1.00
Zn1      0.38485    0.76106    0.53275   1.00
Zn1      0.23894    -0.37621   0.53275   1.00
O2       0.35943    0.60527    0.58080   1.00
O2       0.39473    0.75417    0.58080   1.00
O2       0.24583    0.64057    0.58080   1.00
O2       0.40494    0.57972    0.55486   1.00
O2       0.45355    0.67129    0.51557   1.00
O2       0.31407    0.54080    0.51596   1.00
O2       0.42028    0.82523    0.55486   1.00
O2       0.45920    0.77327    0.51596   1.00
O2       0.32871    -0.21774   0.51557   1.00
O2       0.17477    0.59506    0.55486   1.00
O2       0.21774    0.54645    0.51557   1.00
O2       0.22673    -0.31407   0.51596   1.00
C1       0.39353    0.58057    0.57309   1.00
C1       0.41943    0.81297    0.57309   1.00
C1       0.18703    0.60647    0.57309   1.00
C1       0.47730    0.73330    0.50994   1.00
C1       0.25600    0.52270    0.50994   1.00
C1       0.26670    -0.25600   0.50994   1.00
O1       0.33333    0.66667    0.04167   1.00
Zn1      0.33333    0.66667    0.07078   1.00
Zn1      0.38485    -0.37621   0.03275   1.00
Zn1      0.23894    0.61515    0.03275   1.00
Zn1      0.37621    0.76106    0.03275   1.00
O2       0.39473    0.64057    0.08080   1.00
O2       0.24583    0.60527    0.08080   1.00
O2       0.35943    0.75417    0.08080   1.00
O2       0.42028    0.59506    0.05486   1.00
O2       0.32871    0.54645    0.01557   1.00
O2       0.45920    -0.31407   0.01596   1.00
O2       0.17477    0.57972    0.05486   1.00
O2       0.22673    0.54080    0.01596   1.00
O2       0.21774    0.67129    0.01557   1.00
O2       0.40494    0.82523    0.05486   1.00
O2       0.45355    -0.21774   0.01557   1.00
O2       0.31407    0.77327    0.01596   1.00
C1       0.41943    0.60647    0.07309   1.00
C1       0.18703    0.58057    0.07309   1.00
C1       0.39353    0.81297    0.07309   1.00
C1       0.26670    0.52270    0.00994   1.00
C1       0.47730    -0.25600   0.00994   1.00
C1       0.25600    0.73330    0.00994   1.00
O1       0.33333    0.66667    0.79167   1.00
Zn1      0.33333    0.66667    0.76256   1.00
Zn1      0.29046    0.71818    0.80058   1.00
Zn1      0.28182    0.57227    0.80058   1.00
Zn1      0.42773    0.70954    0.80058   1.00
O2       0.30723    0.72807    0.75254   1.00
O2       0.27193    0.57917    0.75254   1.00
O2       0.42083    0.69277    0.75254   1.00
O2       0.26172    0.75362    0.77848   1.00
O2       0.21312    0.66204    0.81776   1.00
O2       0.35260    0.79253    0.81737   1.00
O2       0.24638    0.50811    0.77848   1.00
O2       0.20747    0.56006    0.81737   1.00
O2       0.33796    0.55107    0.81776   1.00
O2       0.49189    0.73828    0.77848   1.00
O2       0.44893    0.78688    0.81776   1.00
O2       0.43994    0.64740    0.81737   1.00
C1       0.27313    0.75277    0.76025   1.00
C1       0.24723    0.52037    0.76025   1.00
C1       0.47963    0.72687    0.76025   1.00
C1       0.18937    0.60003    0.82339   1.00
C1       0.41067    0.81063    0.82339   1.00
C1       0.39997    0.58933    0.82339   1.00
C5       0.11422    0.94395    0.55063   1.00
H2       0.09063    0.97648    0.55223   1.00
H2       0.12407    0.94304    0.53416   1.00
C5       0.18195    0.97591    0.56266   1.00
H2       0.22407    1.01738    0.55377   1.00
H2       0.19564    0.93622    0.56626   1.00
O_3      -0.10149   0.59203    0.54968   1.00
C4       -0.14333   0.69001    0.55021   1.00
C3c      -0.08486   0.75256    0.54571   1.00
H1       -0.06091   0.76019    0.53101   1.00
C3d      -0.17432   0.68146    0.56934   1.00
C3       -0.05585   0.80567    0.56007   1.00
O2       -0.00379   0.86807    0.55375   1.00
C3       -0.14482   0.73376    0.58381   1.00
H1       -0.16900   0.72398    0.59852   1.00
C2       -0.08527   0.79707    0.57959   1.00
C5       -0.13207   0.54296    0.56521   1.00
H2       -0.15879   0.48986    0.55918   1.00
H2       -0.16972   0.55096    0.57394   1.00
C5       -0.07579   0.55080    0.57943   1.00
H2       -0.04785   0.60440    0.58503   1.00
H2       -0.03886   0.54208    0.57061   1.00
C5       -0.10501   0.50075    0.59725   1.00
H2       -0.13339   0.44715    0.59177   1.00
H2       -0.14008   0.51096    0.60649   1.00
H2       -0.06300   0.50620    0.60723   1.00
C5       -0.29024   0.61539    0.56882   1.00
C5       0.05984    0.87291    0.55775   1.00
H2       -0.29250   0.61858    0.55203   1.00
H2       -0.29661   0.65689    0.57570   1.00
H2       0.06424    0.83283    0.54916   1.00
H2       0.06698    0.86597    0.57420   1.00
H2       0.17806    0.99976    0.57707   1.00
H2       -0.41473   0.51808    0.54874   1.00
H2       -0.42764   0.57102    0.56689   1.00
C2       -0.22943   0.52395    0.50803   1.00
C3       -0.24851   0.57449    0.50730   1.00
O2       -0.30610   0.56287    0.49683   1.00
C3       -0.17922   0.53159    0.52223   1.00
H1       -0.16223   0.49472    0.52281   1.00
C3a      -0.21874   0.62989    0.52096   1.00
H1       -0.23671   0.66604    0.52099   1.00
C3b      -0.15133   0.58555    0.53621   1.00
C4       -0.17111   0.63519    0.53569   1.00
O_3      -0.22885   0.61918    0.57507   1.00
C5       -0.28786   0.59691    0.47798   1.00
H2       -0.25437   0.65310    0.48002   1.00
C5       -0.35409   0.58252    0.46752   1.00
H2       -0.26065   0.57770    0.46832   1.00
H2       -0.37091   0.61697    0.47411   1.00
H2       -0.39386   0.52955    0.47157   1.00
C5       -0.34685   0.59114    0.44429   1.00
H2       -0.30343   0.64242    0.44053   1.00
H2       -0.39415   0.58591    0.43741   1.00
H2       -0.33851   0.55107    0.43716   1.00
C5       -0.34865   0.54679    0.57576   1.00
H2       -0.35356   0.54824    0.59254   1.00
H2       -0.33472   0.50703    0.57245   1.00
C5       -0.41622   0.52885    0.56519   1.00
H2       -0.45882   0.48226    0.57213   1.00
C5       0.13396    0.27026    0.57585   1.00
H2       0.08595    0.22271    0.57207   1.00
H2       0.14525    0.30459    0.56260   1.00
C5       0.12311    0.30272    0.59512   1.00
H2       0.09764    0.33250    0.59130   1.00
H2       0.17304    0.33716    0.60246   1.00
O_3      0.43990    0.27354    0.56100   1.00
C4       0.30973    0.16675    0.55012   1.00
C3c      0.26590    0.19369    0.55158   1.00
H1       0.27304    0.23461    0.54160   1.00
C3d      0.29894    0.11277    0.56307   1.00
C3       0.21306    0.16918    0.56605   1.00
O2       0.16723    0.19217    0.56493   1.00
C3       0.24720    0.08914    0.57775   1.00
H1       0.24241    0.04933    0.58783   1.00
C2       0.20289    0.11632    0.57959   1.00
C5       0.47671    0.25107    0.57290   1.00
H2       0.52756    0.26603    0.56625   1.00
H2       0.44788    0.19449    0.57467   1.00
C5       0.48748    0.28399    0.59367   1.00
H2       0.43677    0.27061    0.60008   1.00
H2       0.51685    0.34044    0.59174   1.00
C5       0.52519    0.26029    0.60787   1.00
H2       0.57568    0.27306    0.60150   1.00
H2       0.49480    0.20424    0.61037   1.00
H2       0.53392    0.28603    0.62283   1.00
C5       0.32327    0.03578    0.54869   1.00
C5       0.18832    0.24923    0.57779   1.00
H2       0.32466    0.05541    0.53313   1.00
H2       0.27075    -0.00722   0.55175   1.00
H2       0.23897    0.29174    0.57283   1.00
H2       0.19346    0.23755    0.59397   1.00
H2       0.08906    0.26281    0.60622   1.00
H2       0.38639    -0.00211   0.51710   1.00
H2       0.31393    -0.07532   0.52869   1.00
C2       0.47597    0.24422    0.50803   1.00
C3       0.41029    0.19314    0.50190   1.00
O2       0.40189    0.15592    0.48449   1.00
C3       0.48430    0.27100    0.52789   1.00
H1       0.53355    0.31137    0.53287   1.00
C3a      0.35544    0.16898    0.51572   1.00
H1       0.30635    0.12718    0.51118   1.00
C3b      0.43015    0.24534    0.54180   1.00
C4       0.36511    0.19384    0.53579   1.00
O_3      0.34376    0.08798    0.56329   1.00
C5       0.37794    0.17997    0.46855   1.00
H2       0.32801    0.17577    0.47248   1.00
C5       0.36890    0.13558    0.45000   1.00
H2       0.41527    0.23426    0.46496   1.00
H2       0.31990    0.08669    0.45160   1.00
H2       0.41022    0.12251    0.45043   1.00
C5       0.37062    0.17078    0.42981   1.00
H2       0.33271    0.18828    0.43027   1.00
H2       0.35819    0.13498    0.41683   1.00
H2       0.42246    0.21525    0.42675   1.00
C5       0.37314    0.00929    0.54974   1.00
H2       0.36330    -0.02071   0.56397   1.00
H2       0.42572    0.05389    0.55092   1.00
C5       0.36758    -0.03408   0.53108   1.00
H2       0.39935    -0.05829   0.53334   1.00
C5       0.74242    0.03863    0.63132   1.00
H2       0.73571    -0.01248   0.62805   1.00
H2       0.69111    0.03314    0.62962   1.00
C5       0.76870    0.05968    0.65329   1.00
H2       0.72590    0.03558    0.66434   1.00
H2       0.79432    0.11610    0.65490   1.00
O_3      0.86618    0.27938    0.55376   1.00
C4       0.83245    0.14215    0.55010   1.00
C3c      0.79583    0.10950    0.56773   1.00
H1       0.74702    0.10571    0.57055   1.00
C3d      0.89549    0.14568    0.54657   1.00
C3       0.82175    0.08221    0.58208   1.00
O2       0.77948    0.04383    0.59766   1.00
C3       0.92204    0.11971    0.56102   1.00
H1       0.97169    0.12575    0.55800   1.00
C2       0.88602    0.08719    0.57903   1.00
C5       0.93256    0.32525    0.54670   1.00
H2       0.93275    0.36084    0.53499   1.00
H2       0.95700    0.29740    0.54005   1.00
C5       0.97439    0.36692    0.56474   1.00
H2       0.97262    0.33126    0.57669   1.00
H2       0.94989    0.39499    0.57114   1.00
C5       1.04829    0.41667    0.55853   1.00
H2       1.05042    0.45213    0.54650   1.00
H2       1.07354    0.38857    0.55279   1.00
H2       1.07768    0.44772    0.57181   1.00
C5       0.91758    0.13849    0.51318   1.00
C5       0.79034    0.08565    0.61478   1.00
H2       0.86377    0.11982    0.50867   1.00
H2       0.92420    0.09360    0.51611   1.00
H2       0.77785    0.12622    0.61104   1.00
H2       0.84443    0.11157    0.62017   1.00
H2       0.80530    0.04216    0.65751   1.00
H2       0.88957    0.14423    0.47071   1.00
H2       0.92739    0.09123    0.47558   1.00
C2       0.75997    0.23288    0.50704   1.00
C3       0.73946    0.16302    0.50553   1.00
O2       0.71075    0.12766    0.48784   1.00
C3       0.80180    0.27056    0.52356   1.00
H1       0.81693    0.32368    0.52543   1.00
C3a      0.76232    0.13314    0.52005   1.00
H1       0.74937    0.08063    0.51803   1.00
C3b      0.82623    0.24125    0.53759   1.00
C4       0.80666    0.17207    0.53590   1.00
O_3      0.93588    0.18176    0.53024   1.00
C5       0.63938    0.08726    0.48999   1.00
H2       0.62554    0.04970    0.50261   1.00
C5       0.61166    0.04902    0.46997   1.00
H2       0.61603    0.11958    0.49306   1.00
H2       0.61989    0.00448    0.46975   1.00
H2       0.64345    0.08360    0.45752   1.00
C5       0.53571    0.02570    0.46659   1.00
H2       0.50549    -0.00425   0.47990   1.00
H2       0.51599    -0.00674   0.45278   1.00
H2       0.52783    0.07016    0.46419   1.00
C5       0.96404    0.17987    0.49577   1.00
H2       1.01612    0.18842    0.49881   1.00
H2       0.96801    0.23094    0.49573   1.00
C5       0.93730    0.14455    0.47515   1.00
H2       0.97580    0.17242    0.46314   1.00
C5       0.68828    -0.11319   0.86261   1.00
H2       0.72294    -0.05709   0.86276   1.00
H2       0.63576    -0.12117   0.86194   1.00
C5       0.70299    -0.14394   0.84362   1.00
H2       0.67724    -0.13812   0.83001   1.00
H2       0.68461    -0.19908   0.84609   1.00
O_3      0.61376    -0.28441   0.95500   1.00
C4       0.69015    -0.14205   0.94986   1.00
C3c      0.67931    -0.12972   0.92970   1.00
H1       0.62880    -0.14202   0.92487   1.00
C3d      0.75655    -0.12475   0.95592   1.00
C3       0.73281    -0.10243   0.91545   1.00
O2       0.72018    -0.08407   0.89674   1.00
C3       0.80966    -0.09878   0.94166   1.00
H1       0.85920    -0.08855   0.94684   1.00
C2       0.79942    -0.08670   0.92117   1.00
C5       0.64807    -0.30985   0.96685   1.00
H2       0.61696    -0.34033   0.98004   1.00
H2       0.69739    -0.26752   0.97272   1.00
C5       0.66228    -0.35572   0.95336   1.00
H2       0.69173    -0.32578   0.93988   1.00
H2       0.61268    -0.39813   0.94774   1.00
C5       0.70182    -0.38376   0.96490   1.00
H2       0.67292    -0.41331   0.97846   1.00
H2       0.75237    -0.34156   0.96991   1.00
H2       0.71041    -0.41835   0.95493   1.00
C5       0.78223    -0.08674   0.98854   1.00
C5       0.69983    -0.13862   0.88292   1.00
H2       0.73753    -0.07908   0.98977   1.00
H2       0.82737    -0.03786   0.98358   1.00
H2       0.65166    -0.18395   0.88820   1.00
H2       0.73893    -0.15473   0.88124   1.00
H2       0.75873    -0.11699   0.84006   1.00
H2       0.74035    -0.07122   1.02863   1.00
H2       0.82708    -0.00564   1.02259   1.00
C2       0.52814    -0.23201   0.99331   1.00
C3       0.56339    -0.16077   0.99022   1.00
O2       0.55851    -0.11815   1.00424   1.00
C3       0.54546    -0.27245   0.98108   1.00
H1       0.51825    -0.32728   0.98270   1.00
C3a      0.61568    -0.13168   0.97555   1.00
H1       0.64479    -0.07677   0.97417   1.00
C3b      0.59894    -0.24318   0.96695   1.00
C4       0.63464    -0.17227   0.96412   1.00
O_3      0.76891    -0.14062   0.97515   1.00
C5       0.51340    -0.09670   0.99720   1.00
H2       0.53117    -0.06873   0.98251   1.00
C5       0.51170    -0.04898   1.01334   1.00
H2       0.46107    -0.14104   0.99506   1.00
H2       0.55787    0.00221    1.01149   1.00
H2       0.51632    -0.06850   1.02842   1.00
C5       0.44650    -0.04359   1.01237   1.00
H2       0.43987    -0.02928   0.99677   1.00
H2       0.44970    -0.00425   1.02315   1.00
H2       0.40039    -0.09275   1.01675   1.00
C5       0.79674    -0.10583   1.00933   1.00
H2       0.84775    -0.10191   1.00891   1.00
H2       0.75860    -0.16035   1.01226   1.00
C5       0.79359    -0.06059   1.02624   1.00
H2       0.81131    -0.07112   1.04080   1.00
C5       0.27083    0.13466    0.92392   1.00
H2       0.22341    0.08657    0.92773   1.00
H2       0.30532    0.14606    0.93713   1.00
C5       0.30318    0.12394    0.90460   1.00
H2       0.33315    0.09863    0.90837   1.00
H2       0.33742    0.17390    0.89725   1.00
O_3      0.27314    0.44005    0.93894   1.00
C4       0.16675    0.30973    0.94988   1.00
C3c      0.19388    0.26608    0.94836   1.00
H1       0.23496    0.27336    0.95830   1.00
C3d      0.11258    0.29875    0.93699   1.00
C3       0.16937    0.21324    0.93390   1.00
O2       0.19259    0.16758    0.93495   1.00
C3       0.08894    0.24702    0.92231   1.00
H1       0.04896    0.24208    0.91227   1.00
C2       0.11631    0.20289    0.92041   1.00
C5       0.25037    0.47671    0.92709   1.00
H2       0.26524    0.52751    0.93376   1.00
H2       0.19377    0.44771    0.92538   1.00
C5       0.28308    0.48756    0.90629   1.00
H2       0.26980    0.43689    0.89986   1.00
H2       0.33955    0.51709    0.90817   1.00
C5       0.25905    0.52511    0.89214   1.00
H2       0.27172    0.57556    0.89853   1.00
H2       0.20298    0.49457    0.88969   1.00
H2       0.28464    0.53391    0.87715   1.00
C5       0.03551    0.32276    0.95148   1.00
C5       0.24954    0.18883    0.92203   1.00
H2       0.05533    0.32422    0.96702   1.00
H2       -0.00741   0.27017    0.94844   1.00
H2       0.29199    0.23955    0.92698   1.00
H2       0.23764    0.19392    0.90588   1.00
H2       0.26321    0.08980    0.89353   1.00
H2       -0.00235   0.38564    0.98315   1.00
H2       -0.07555   0.31303    0.97161   1.00
C2       0.24420    0.47597    0.99197   1.00
C3       0.19334    0.41022    0.99812   1.00
O2       0.15626    0.40171    1.01557   1.00
C3       0.27079    0.48437    0.97209   1.00
H1       0.31099    0.53368    0.96709   1.00
C3a      0.16918    0.35538    0.98430   1.00
H1       0.12754    0.30622    0.98886   1.00
C3b      0.24513    0.43021    0.95818   1.00
C4       0.19384    0.36511    0.96421   1.00
O_3      0.08757    0.34340    0.93683   1.00
C5       0.18062    0.37790    1.03147   1.00
H2       0.17655    0.32804    1.02752   1.00
C5       0.13638    0.36872    1.05008   1.00
H2       0.23490    0.41536    1.03502   1.00
H2       0.08756    0.31963    1.04850   1.00
H2       0.12313    0.40992    1.04968   1.00
C5       0.17186    0.37057    1.07023   1.00
H2       0.18952    0.33280    1.06971   1.00
H2       0.13618    0.35804    1.08323   1.00
H2       0.21625    0.42248    1.07326   1.00
C5       0.00877    0.37244    0.95050   1.00
H2       -0.02140   0.36250    0.93630   1.00
H2       0.05325    0.42508    0.94929   1.00
C5       -0.03446   0.36673    0.96921   1.00
H2       -0.05885   0.39836    0.96700   1.00
C5       0.03873    0.74249    0.86867   1.00
H2       -0.01239   0.73575    0.87194   1.00
H2       0.03326    0.69118    0.87037   1.00
C5       0.05980    0.76879    0.84671   1.00
H2       0.03572    0.72601    0.83564   1.00
H2       0.11622    0.79443    0.84509   1.00
O_3      0.27939    0.86623    0.94625   1.00
C4       0.14215    0.83245    0.94990   1.00
C3c      0.10953    0.79584    0.93227   1.00
H1       0.10576    0.74704    0.92944   1.00
C3d      0.14566    0.89548    0.95344   1.00
C3       0.08223    0.82176    0.91792   1.00
O2       0.04388    0.77950    0.90233   1.00
C3       0.11968    0.92203    0.93899   1.00
H1       0.12570    0.97167    0.94201   1.00
C2       0.08719    0.88602    0.92097   1.00
C5       0.32524    0.93261    0.95331   1.00
H2       0.36083    0.93280    0.96503   1.00
H2       0.29737    0.95703    0.95997   1.00
C5       0.36693    0.97447    0.93528   1.00
H2       0.33127    0.97269    0.92333   1.00
H2       0.39502    0.94999    0.92888   1.00
C5       0.41665    1.04837    0.94150   1.00
H2       0.45210    1.05049    0.95353   1.00
H2       0.38852    1.07359    0.94724   1.00
H2       0.44770    1.07777    0.92822   1.00
C5       0.13842    0.91752    0.98682   1.00
C5       0.08572    0.79040    0.88521   1.00
H2       0.11976    0.86371    0.99133   1.00
H2       0.09352    0.92412    0.98389   1.00
H2       0.12631    0.77792    0.88895   1.00
H2       0.11163    0.84449    0.87983   1.00
H2       0.04227    0.80538    0.84249   1.00
H2       0.14413    0.88947    1.02930   1.00
H2       0.09110    0.92726    1.02443   1.00
C2       0.23288    0.75997    0.99296   1.00
C3       0.16301    0.73943    0.99446   1.00
O2       0.12764    0.71070    1.01215   1.00
C3       0.27057    0.80183    0.97645   1.00
H1       0.32370    0.81698    0.97457   1.00
C3a      0.13313    0.76229    0.97994   1.00
H1       0.08061    0.74932    0.98196   1.00
C3b      0.24126    0.82625    0.96241   1.00
C4       0.17207    0.80666    0.96410   1.00
O_3      0.18170    0.93585    0.96977   1.00
C5       0.08726    0.63932    1.00999   1.00
H2       0.04971    0.62549    0.99737   1.00
C5       0.04900    0.61158    1.03001   1.00
H2       0.11960    0.61600    1.00692   1.00
H2       0.00445    0.61979    1.03023   1.00
H2       0.08356    0.64336    1.04246   1.00
C5       0.02570    0.53563    1.03339   1.00
H2       -0.00423   0.50542    1.02007   1.00
H2       -0.00675   0.51589    1.04719   1.00
H2       0.07017    0.52776    1.03579   1.00
C5       0.17977    0.96397    1.00424   1.00
H2       0.18831    1.01605    1.00121   1.00
H2       0.23085    0.96796    1.00429   1.00
C5       0.14443    0.93720    1.02486   1.00
H2       0.17228    0.97569    1.03687   1.00
C5       -0.04164   0.02067    0.46000   1.00
H2       -0.08043   0.01855    0.44926   1.00
H2       -0.05913   0.02531    0.47535   1.00
C5       -0.03845   -0.04584   0.45834   1.00
H2       -0.08014   -0.08753   0.46730   1.00
H2       0.01152    -0.03718   0.46406   1.00
O_3      0.25593    0.33270    0.47292   1.00
C4       0.14237    0.31046    0.44965   1.00
C3c      0.08954    0.24516    0.45498   1.00
H1       0.06981    0.23547    0.47029   1.00
C3d      0.16668    0.32227    0.42954   1.00
C3       0.06206    0.19131    0.44084   1.00
O2       0.00507    0.13131    0.44643   1.00
C3       0.14033    0.26843    0.41553   1.00
H1       0.16224    0.27932    0.40049   1.00
C2       0.08740    0.20189    0.42073   1.00
C5       0.31765    0.36660    0.46194   1.00
H2       0.35665    0.41371    0.46978   1.00
H2       0.30924    0.38104    0.44648   1.00
C5       0.34518    0.31791    0.45999   1.00
H2       0.30545    0.27005    0.45267   1.00
H2       0.35399    0.30434    0.47551   1.00
C5       0.41131    0.34997    0.44757   1.00
H2       0.45106    0.39803    0.45472   1.00
H2       0.40206    0.36136    0.43185   1.00
H2       0.43146    0.31422    0.44669   1.00
C5       0.19912    0.42903    0.41785   1.00
C5       0.02465    0.08592    0.45461   1.00
H2       0.17327    0.43953    0.43052   1.00
H2       0.16315    0.40816    0.40477   1.00
H2       0.05632    0.10842    0.46848   1.00
H2       0.05541    0.07438    0.44371   1.00
H2       -0.04558   -0.06433   0.44231   1.00
H2       0.23584    0.56910    0.42508   1.00
H2       0.20069    0.53958    0.39990   1.00
C2       0.23325    0.47419    0.49253   1.00
C3       0.17415    0.46175    0.48181   1.00
O2       0.15500    0.51077    0.48106   1.00
C3       0.25912    0.42947    0.48946   1.00
H1       0.30324    0.43656    0.49783   1.00
C3a      0.14360    0.40674    0.46805   1.00
H1       0.10072    0.40023    0.45911   1.00
C3b      0.22992    0.37615    0.47529   1.00
C4       0.17180    0.36448    0.46441   1.00
O_3      0.22204    0.38414    0.42393   1.00
C5       0.10078    0.49427    0.49464   1.00
H2       0.05544    0.44386    0.49086   1.00
C5       0.08188    0.55015    0.49265   1.00
H2       0.11639    0.49261    0.51057   1.00
H2       0.04964    0.53960    0.47888   1.00
H2       0.12990    0.59910    0.48980   1.00
C5       0.04493    0.55601    0.51153   1.00
H2       0.00015    0.50538    0.51509   1.00
H2       0.02699    0.59303    0.50886   1.00
H2       0.07970    0.57507    0.52496   1.00
C5       0.26141    0.49573    0.41147   1.00
H2       0.28025    0.48749    0.39673   1.00
H2       0.30253    0.50866    0.42284   1.00
C5       0.24565    0.55428    0.40984   1.00
H2       0.28995    0.60004    0.40316   1.00
C5       0.73589    0.70528    0.38011   1.00
H2       0.74044    0.74467    0.36919   1.00
H2       0.68226    0.66299    0.37904   1.00
C5       0.78558    0.68012    0.37399   1.00
H2       0.76337    0.64138    0.36168   1.00
H2       0.79676    0.65716    0.38732   1.00
O_3      0.68696    0.75030    0.48192   1.00
C4       0.68969    0.83314    0.44969   1.00
C3c      0.68520    0.79713    0.43187   1.00
H1       0.63961    0.74897    0.42885   1.00
C3d      0.74915    0.89626    0.45319   1.00
C3       0.73941    0.82189    0.41788   1.00
O2       0.72815    0.78817    0.39967   1.00
C3       0.80373    0.92043    0.43948   1.00
H1       0.84923    0.96789    0.44317   1.00
C2       0.80033    0.88429    0.42150   1.00
C5       0.73211    0.78817    0.49775   1.00
H2       0.70582    0.77782    0.51271   1.00
H2       0.75722    0.84405    0.49472   1.00
C5       0.78632    0.76746    0.49896   1.00
H2       0.81129    0.77600    0.48385   1.00
H2       0.76075    0.71173    0.50218   1.00
C5       0.83916    0.80817    0.51540   1.00
H2       0.81450    0.80026    0.53051   1.00
H2       0.86639    0.86363    0.51183   1.00
H2       0.87750    0.79128    0.51636   1.00
C5       0.73011    0.97425    0.46937   1.00
C5       0.74907    0.73900    0.40102   1.00
H2       0.67427    0.94439    0.46651   1.00
H2       0.75471    1.01200    0.45686   1.00
H2       0.71865    0.70030    0.41283   1.00
H2       0.80411    0.76199    0.40521   1.00
H2       0.83443    0.72281    0.36789   1.00
H2       0.64325    1.00769    0.49293   1.00
H2       0.70519    1.07891    0.47778   1.00
C2       0.52977    0.75686    0.49391   1.00
C3       0.52817    0.79529    0.47728   1.00
O2       0.48605    0.82302    0.47759   1.00
C3       0.58320    0.74168    0.49495   1.00
H1       0.58490    0.71089    0.50721   1.00
C3a      0.58024    0.81893    0.46252   1.00
H1       0.58043    0.85155    0.45051   1.00
C3b      0.63608    0.76710    0.48061   1.00
C4       0.63500    0.80618    0.46425   1.00
O_3      0.75819    0.93117    0.47121   1.00
C5       0.42756    0.78348    0.46564   1.00
H2       0.44154    0.78093    0.44955   1.00
C5       0.38428    0.81804    0.46650   1.00
H2       0.39748    0.73056    0.47168   1.00
H2       0.40628    0.86186    0.45576   1.00
H2       0.39002    0.83995    0.48198   1.00
C5       0.30847    0.76891    0.46162   1.00
H2       0.30406    0.74347    0.44683   1.00
H2       0.27987    0.79700    0.46071   1.00
H2       0.28339    0.72947    0.47373   1.00
C5       0.74236    1.01241    0.48934   1.00
H2       0.79760    1.05095    0.49047   1.00
H2       0.73061    0.97548    0.50197   1.00
C5       0.69839    1.04648    0.49124   1.00
H2       0.71373    1.07954    0.50492   1.00
C5       0.23604    0.13660    0.43546   1.00
H2       0.24904    0.13652    0.41923   1.00
H2       0.28521    0.15951    0.44380   1.00
C5       0.20177    0.18049    0.43824   1.00
H2       0.24075    0.23566    0.43903   1.00
H2       0.17105    0.16557    0.45244   1.00
O_3      0.11976    -0.16502   0.48983   1.00
C4       0.16766    -0.14299   0.44958   1.00
C3c      0.19960    -0.07226   0.44646   1.00
H1       0.24472    -0.03851   0.45506   1.00
C3d      0.10948    -0.18614   0.43801   1.00
C3       0.17355    -0.04392   0.43251   1.00
O2       0.21209    0.02477    0.42849   1.00
C3       0.08266    -0.15800   0.42439   1.00
H1       0.03657    -0.19297   0.41638   1.00
C2       0.11390    -0.08655   0.42121   1.00
C5       0.05498    -0.22393   0.49191   1.00
H2       0.05481    -0.25968   0.50357   1.00
H2       0.03742    -0.25202   0.47724   1.00
C5       0.00521    -0.20106   0.49847   1.00
H2       0.00680    -0.16385   0.48711   1.00
H2       0.02289    -0.17365   0.51321   1.00
C5       -0.06731   -0.26204   0.50040   1.00
H2       -0.06917   -0.29964   0.51161   1.00
H2       -0.08590   -0.28804   0.48552   1.00
H2       -0.10267   -0.24450   0.50563   1.00
C5       0.10081    -0.28805   0.42982   1.00
C5       0.19157    0.06142    0.44126   1.00
H2       0.15471    -0.27012   0.43405   1.00
H2       0.09859    -0.27889   0.41328   1.00
H2       0.20005    0.05357    0.45748   1.00
H2       0.13633    0.04497    0.43949   1.00
H2       0.16806    0.17458    0.42509   1.00
H2       0.14061    -0.38975   0.43573   1.00
H2       0.10945    -0.39085   0.41024   1.00
C2       0.23989    -0.23172   0.49340   1.00
C3       0.26728    -0.21779   0.47359   1.00
O2       0.30396    -0.24726   0.46658   1.00
C3       0.19107    -0.21261   0.49853   1.00
H1       0.17044    -0.22096   0.51371   1.00
C3a      0.24432    -0.18712   0.45938   1.00
H1       0.26289    -0.18035   0.44396   1.00
C3b      0.16675    -0.18412   0.48418   1.00
C4       0.19324    -0.17126   0.46441   1.00
O_3      0.07320    -0.25565   0.44160   1.00
C5       0.37444    -0.19967   0.46717   1.00
H2       0.38729    -0.15408   0.45761   1.00
C5       0.41129    -0.23572   0.45888   1.00
H2       0.39169    -0.18239   0.48300   1.00
H2       0.40858    -0.23602   0.44201   1.00
H2       0.38193    -0.28998   0.46383   1.00
C5       0.48603    -0.20258   0.46600   1.00
H2       0.51314    -0.14726   0.46236   1.00
H2       0.51268    -0.22650   0.45833   1.00
H2       0.48931    -0.20960   0.48267   1.00
C5       0.05863    -0.36428   0.43396   1.00
H2       0.00796    -0.38426   0.42656   1.00
H2       0.04931    -0.37178   0.45060   1.00
C5       0.09445    -0.40278   0.42644   1.00
H2       0.05939    -0.45866   0.42777   1.00
C5       0.30521    0.07081    0.13470   1.00
H2       0.28410    0.10288    0.14016   1.00
H2       0.36128    0.10192    0.13684   1.00
C5       0.27563    0.00485    0.14753   1.00
H2       0.30375    0.01440    0.16212   1.00
H2       0.27933    -0.03557   0.13898   1.00
O_3      0.35172    0.05972    0.03070   1.00
C4       0.31005    0.14337    0.05023   1.00
C3c      0.32235    0.14048    0.07098   1.00
H1       0.37406    0.16060    0.07631   1.00
C3d      0.24237    0.11776    0.04364   1.00
C3       0.26850    0.11093    0.08509   1.00
O2       0.28494    0.11741    0.10538   1.00
C3       0.18855    0.08712    0.05760   1.00
H1       0.13734    0.06601    0.05173   1.00
C2       0.20002    0.08311    0.07860   1.00
C5       0.30755    0.02106    0.01478   1.00
H2       0.33518    0.02886    0.00014   1.00
H2       0.26679    0.03438    0.01245   1.00
C5       0.27480    -0.05371   0.02059   1.00
H2       0.24882    -0.06115   0.03550   1.00
H2       0.31591    -0.06660   0.02269   1.00
C5       0.22393    -0.09944   0.00436   1.00
H2       0.24945    -0.09192   -0.01060   1.00
H2       0.18159    -0.08823   0.00275   1.00
H2       0.20164    -0.15396   0.00866   1.00
C5       0.23157    0.17659    0.01718   1.00
C5       0.28804    0.05968    0.11206   1.00
H2       0.28417    0.22028    0.01922   1.00
H2       0.19555    0.18702    0.02591   1.00
H2       0.32863    0.05567    0.10363   1.00
H2       0.23898    0.01096    0.10961   1.00
H2       0.22114    -0.01402   0.15161   1.00
H2       0.29061    0.27267    -0.01581   1.00
H2       0.21314    0.26735    -0.00594   1.00
C2       0.47087    0.22558    0.00628   1.00
C3       0.45326    0.26911    0.01667   1.00
O2       0.47465    0.33397    0.00949   1.00
C3       0.43658    0.15559    0.01149   1.00
H1       0.45010    0.12126    0.00419   1.00
C3a      0.40125    0.24187    0.03146   1.00
H1       0.38570    0.27513    0.03845   1.00
C3b      0.38340    0.12827    0.02574   1.00
C4       0.36523    0.17142    0.03583   1.00
O_3      0.22711    0.11470    0.02320   1.00
C5       0.53051    0.38249    0.02098   1.00
H2       0.51674    0.38049    0.03733   1.00
C5       0.55035    0.45276    0.01235   1.00
H2       0.57470    0.37383    0.01975   1.00
H2       0.51446    0.46851    0.01845   1.00
H2       0.54181    0.44686    -0.00435   1.00
C5       0.62473    0.50715    0.01712   1.00
H2       0.63377    0.50853    0.03372   1.00
H2       0.63547    0.55855    0.01211   1.00
H2       0.66165    0.49648    0.00893   1.00
C5       0.21318    0.17040    -0.00523   1.00
H2       0.15732    0.13490    -0.00681   1.00
H2       0.23924    0.14631    -0.01316   1.00
C5       0.23400    0.24011    -0.01482   1.00
H2       0.21355    0.23293    -0.03051   1.00
C5       0.71740    0.72121    0.12505   1.00
H2       0.76162    0.73015    0.13454   1.00
H2       0.67933    0.66616    0.12667   1.00
C5       0.68777    0.76535    0.13301   1.00
H2       0.65371    0.74058    0.14625   1.00
H2       0.65824    0.77295    0.12081   1.00
O_3      0.73644    0.67713    0.02125   1.00
C4       0.83321    0.68976    0.05029   1.00
C3c      0.80188    0.68211    0.06925   1.00
H1       0.75747    0.63403    0.07317   1.00
C3d      0.89161    0.75251    0.04560   1.00
C3       0.82650    0.73623    0.08327   1.00
O2       0.79843    0.72247    0.10240   1.00
C3       0.91547    0.80691    0.05937   1.00
H1       0.95896    0.85481    0.05481   1.00
C2       0.88395    0.80027    0.07851   1.00
C5       0.76597    0.72328    0.00496   1.00
H2       0.75310    0.69697    -0.01003   1.00
H2       0.82264    0.75313    0.00639   1.00
C5       0.73812    0.77194    0.00555   1.00
H2       0.74930    0.79682    0.02073   1.00
H2       0.68160    0.74167    0.00392   1.00
C5       0.76961    0.82562    -0.01130   1.00
H2       0.75905    0.80111    -0.02650   1.00
H2       0.82578    0.85744    -0.00928   1.00
H2       0.74753    0.85979    -0.01091   1.00
C5       0.96984    0.74271    0.02628   1.00
C5       0.74438    0.73670    0.10327   1.00
H2       0.94559    0.68700    0.02917   1.00
H2       1.01072    0.77036    0.03779   1.00
H2       0.70336    0.70348    0.09238   1.00
H2       0.76111    0.79086    0.09929   1.00
H2       0.72911    0.81617    0.13842   1.00
H2       1.00641    0.66400    -0.00002   1.00
H2       1.07911    0.73054    0.01359   1.00
C2       0.75627    0.52967    0.00611   1.00
C3       0.80201    0.53289    0.02121   1.00
O2       0.83540    0.49631    0.01907   1.00
C3       0.73433    0.57821    0.00665   1.00
H1       0.69798    0.57606    -0.00437   1.00
C3a      0.82593    0.58489    0.03599   1.00
H1       0.86390    0.58901    0.04673   1.00
C3b      0.75988    0.63116    0.02097   1.00
C4       0.80616    0.63493    0.03577   1.00
O_3      0.92123    0.76433    0.02657   1.00
C5       0.80428    0.43732    0.03131   1.00
H2       0.80537    0.45066    0.04766   1.00
C5       0.84476    0.40039    0.02837   1.00
H2       0.75026    0.40302    0.02669   1.00
H2       0.89167    0.42621    0.03784   1.00
H2       0.86197    0.40773    0.01227   1.00
C5       0.80317    0.32383    0.03360   1.00
H2       0.78189    0.31733    0.04916   1.00
H2       0.83589    0.30005    0.03293   1.00
H2       0.76072    0.29555    0.02254   1.00
C5       1.00187    0.75783    0.00525   1.00
H2       1.03582    0.81399    0.00374   1.00
H2       0.96043    0.74234    -0.00617   1.00
C5       1.04156    0.72017    0.00127   1.00
H2       1.06998    0.73783    -0.01326   1.00
C5       0.13655    0.23575    0.06446   1.00
H2       0.13656    0.24883    0.08069   1.00
H2       0.15949    0.28489    0.05610   1.00
C5       0.18036    0.20140    0.06168   1.00
H2       0.23554    0.24032    0.06087   1.00
H2       0.16535    0.17062    0.04749   1.00
O_3      -0.16522   0.11960    0.01019   1.00
C4       -0.14299   0.16766    0.05042   1.00
C3c      -0.07226   0.19953    0.05351   1.00
H1       -0.03850   0.24461    0.04490   1.00
C3d      -0.18615   0.10955    0.06201   1.00
C3       -0.04392   0.17348    0.06747   1.00
O2       0.02480    0.21197    0.07147   1.00
C3       -0.15801   0.08273    0.07563   1.00
H1       -0.19298   0.03669    0.08366   1.00
C2       -0.08655   0.11390    0.07879   1.00
C5       -0.22419   0.05485    0.00813   1.00
H2       -0.25996   0.05468    -0.00351   1.00
H2       -0.25223   0.03737    0.02281   1.00
C5       -0.20143   0.00499    0.00159   1.00
H2       -0.16420   0.00657    0.01293   1.00
H2       -0.17407   0.02258    -0.01317   1.00
C5       -0.26248   -0.06750   -0.00032   1.00
H2       -0.30009   -0.06936   -0.01152   1.00
H2       -0.28842   -0.08601   0.01457   1.00
H2       -0.24502   -0.10293   -0.00555   1.00
C5       -0.28797   0.10104    0.07023   1.00
C5       0.06134    0.19134    0.05869   1.00
H2       -0.26999   0.15494    0.06598   1.00
H2       -0.27875   0.09887    0.08677   1.00
H2       0.05345    0.19977    0.04247   1.00
H2       0.04484    0.13609    0.06048   1.00
H2       0.17445    0.16772    0.07484   1.00
H2       -0.38956   0.14099    0.06433   1.00
H2       -0.39061   0.10991    0.08983   1.00
C2       -0.23173   0.23989    0.00660   1.00
C3       -0.21769   0.26735    0.02640   1.00
O2       -0.24707   0.30413    0.03341   1.00
C3       -0.21271   0.19099    0.00148   1.00
H1       -0.22115   0.17029    -0.01370   1.00
C3a      -0.18702   0.24440    0.04061   1.00
H1       -0.18017   0.26303    0.05602   1.00
C3b      -0.18422   0.16667    0.01583   1.00
C4       -0.17127   0.19324    0.03559   1.00
O_3      -0.25567   0.07333    0.05845   1.00
C5       -0.19941   0.37460    0.03279   1.00
H2       -0.15380   0.38743    0.04234   1.00
C5       -0.23536   0.41155    0.04108   1.00
H2       -0.18218   0.39176    0.01695   1.00
H2       -0.23559   0.40890    0.05795   1.00
H2       -0.28963   0.38222    0.03615   1.00
C5       -0.20216   0.48627    0.03393   1.00
H2       -0.14683   0.51334    0.03756   1.00
H2       -0.22600   0.51300    0.04160   1.00
H2       -0.20924   0.48950    0.01726   1.00
C5       -0.36421   0.05893    0.06612   1.00
H2       -0.38423   0.00827    0.07353   1.00
H2       -0.37179   0.04954    0.04948   1.00
C5       -0.40261   0.09485    0.07363   1.00
H2       -0.45851   0.05984    0.07232   1.00
C5       0.67522    1.31594    0.87270   1.00
H2       0.63994    1.32542    0.88201   1.00
H2       0.65920    1.31463    0.85670   1.00
C5       0.74925    1.37479    0.87584   1.00
H2       0.75979    1.41957    0.86628   1.00
H2       0.78593    1.35752    0.87179   1.00
O_3      0.60683    0.98116    0.86418   1.00
C4       0.52322    1.02298    0.88366   1.00
C3c      0.54826    1.09104    0.87780   1.00
H1       0.54568    1.10294    0.86206   1.00
C3d      0.52617    1.00846    0.90429   1.00
C3       0.57776    1.14469    0.89197   1.00
O2       0.59348    1.20879    0.88559   1.00
C3       0.55669    1.06189    0.91838   1.00
H1       0.55999    1.04850    0.93391   1.00
C2       0.58295    1.13107    0.91267   1.00
C5       0.62186    0.93965    0.87663   1.00
H2       0.60800    0.89004    0.86928   1.00
H2       0.59430    0.92877    0.89141   1.00
C5       0.69819    0.97803    0.88059   1.00
H2       0.71235    1.02842    0.88741   1.00
H2       0.72517    0.98804    0.86575   1.00
C5       0.71868    0.93736    0.89467   1.00
H2       0.70425    0.88679    0.88801   1.00
H2       0.69359    0.92938    0.90973   1.00
H2       0.77482    0.96553    0.89702   1.00
C5       0.43648    0.90739    0.91489   1.00
C5       0.66216    1.24542    0.87911   1.00
H2       0.40595    0.90249    0.90113   1.00
H2       0.42323    0.93315    0.92702   1.00
H2       0.67009    1.21898    0.86599   1.00
H2       0.69870    1.25027    0.89130   1.00
H2       0.75814    1.39311    0.89190   1.00
H2       0.32024    0.77521    0.90612   1.00
H2       0.31349    0.80888    0.93050   1.00
C2       0.43999    0.85849    0.84092   1.00
C3       0.39781    0.88099    0.84970   1.00
O2       0.32778    0.84082    0.84874   1.00
C3       0.51023    0.89366    0.84584   1.00
H1       0.54420    0.87883    0.83898   1.00
C3a      0.42595    0.93624    0.86341   1.00
H1       0.39228    0.95034    0.87088   1.00
C3b      0.53763    0.94717    0.85998   1.00
C4       0.49544    0.96880    0.86893   1.00
O_3      0.50697    0.94300    0.91060   1.00
C5       0.30142    0.86532    0.83361   1.00
H2       0.31440    0.91894    0.83676   1.00
C5       0.22385    0.81902    0.83374   1.00
H2       0.32173    0.86341    0.81837   1.00
H2       0.20257    0.83487    0.84648   1.00
H2       0.21289    0.76639    0.83730   1.00
C5       0.19028    0.82016    0.81350   1.00
H2       0.20614    0.87365    0.80939   1.00
H2       0.13368    0.79054    0.81474   1.00
H2       0.20453    0.79623    0.80101   1.00
C5       0.41802    0.83634    0.92210   1.00
H2       0.43929    0.84059    0.93761   1.00
H2       0.44390    0.81675    0.91203   1.00
C5       0.34046    0.78704    0.92194   1.00
H2       0.32849    0.73807    0.92924   1.00
C5       -0.04780   0.60807    0.96078   1.00
H2       -0.09508   0.60852    0.95661   1.00
H2       -0.00520   0.66064    0.95796   1.00
C5       -0.05056   0.58949    0.98349   1.00
H2       -0.03557   0.63496    0.99324   1.00
H2       -0.01551   0.56935    0.98648   1.00
O_3      0.08851    0.48160    0.88984   1.00
C4       -0.02366   0.50078    0.88342   1.00
C3c      -0.02349   0.54083    0.89971   1.00
H1       0.01851    0.59232    0.90146   1.00
C3d      -0.07935   0.43415    0.88124   1.00
C3       -0.07661   0.51504    0.91409   1.00
O2       -0.07712   0.55975    0.92814   1.00
C3       -0.13167   0.40788    0.89575   1.00
H1       -0.17210   0.35570    0.89385   1.00
C2       -0.13193   0.44743    0.91244   1.00
C5       0.07413    0.41505    0.88488   1.00
H2       0.11134    0.41522    0.87377   1.00
H2       0.02191    0.38443    0.87833   1.00
C5       0.07836    0.38127    0.90431   1.00
H2       0.04256    0.38282    0.91560   1.00
H2       0.13087    0.41189    0.91060   1.00
C5       0.06095    0.30753    0.90039   1.00
H2       0.09620    0.30557    0.88901   1.00
H2       0.00770    0.27632    0.89477   1.00
H2       0.06578    0.28418    0.91467   1.00
C5       -0.10756   0.40021    0.84837   1.00
C5       -0.04355   0.55811    0.94603   1.00
H2       -0.07643   0.45311    0.84251   1.00
H2       -0.16091   0.38926    0.85073   1.00
H2       0.01081    0.57449    0.94268   1.00
H2       -0.06734   0.50598    0.95288   1.00
H2       -0.10344   0.55056    0.98816   1.00
H2       -0.07497   0.41737    0.80565   1.00
H2       -0.16623   0.37348    0.81045   1.00
C2       0.14000    0.57358    0.84051   1.00
C3       0.08604    0.58694    0.83752   1.00
O2       0.07606    0.60779    0.81880   1.00
C3       0.14005    0.53890    0.85836   1.00
H1       0.18152    0.52944    0.86135   1.00
C3a      0.03309    0.56413    0.85197   1.00
H1       -0.00980   0.57132    0.84890   1.00
C3b      0.08622    0.51437    0.87237   1.00
C4       0.03209    0.52676    0.86923   1.00
O_3      -0.07949   0.39093    0.86638   1.00
C5       0.10092    0.67868    0.81888   1.00
H2       0.07449    0.69284    0.83057   1.00
C5       0.08698    0.69747    0.79781   1.00
H2       0.15680    0.70756    0.82195   1.00
H2       0.03251    0.68392    0.79708   1.00
H2       0.09337    0.66425    0.78661   1.00
C5       0.13409    0.77335    0.79255   1.00
H2       0.13109    0.80571    0.80472   1.00
H2       0.11869    0.78628    0.77792   1.00
H2       0.18818    0.78574    0.79068   1.00
C5       -0.10785   0.35090    0.83263   1.00
H2       -0.14796   0.29826    0.83684   1.00
H2       -0.05801   0.35232    0.83345   1.00
C5       -0.11962   0.36881    0.81104   1.00
H2       -0.12662   0.32796    0.80031   1.00
C5       0.41822    0.38523    0.96618   1.00
H2       0.40867    0.33281    0.96339   1.00
H2       0.36776    0.38198    0.96496   1.00
C5       0.44807    0.40846    0.98772   1.00
H2       0.40684    0.38748    0.99933   1.00
H2       0.47604    0.46513    0.98865   1.00
O_3      0.53925    0.61471    0.88567   1.00
C4       0.49907    0.47546    0.88344   1.00
C3c      0.46439    0.44632    0.90163   1.00
H1       0.41711    0.44531    0.90489   1.00
C3d      0.56009    0.47538    0.87934   1.00
C3       0.49037    0.41904    0.91596   1.00
O2       0.44961    0.38404    0.93220   1.00
C3       0.58676    0.44943    0.89376   1.00
H1       0.63494    0.45268    0.89027   1.00
C2       0.55273    0.42045    0.91233   1.00
C5       0.60510    0.65732    0.87768   1.00
H2       0.60533    0.69213    0.86568   1.00
H2       0.62653    0.62666    0.87106   1.00
C5       0.65053    0.70033    0.89500   1.00
H2       0.64879    0.66556    0.90724   1.00
H2       0.62902    0.73119    0.90137   1.00
C5       0.72402    0.74664    0.88775   1.00
H2       0.72608    0.78118    0.87543   1.00
H2       0.74635    0.71581    0.88204   1.00
H2       0.75611    0.77876    0.90051   1.00
C5       0.57634    0.46231    0.84586   1.00
C5       0.46478    0.42865    0.94887   1.00
H2       0.52237    0.44531    0.84197   1.00
H2       0.58098    0.41642    0.84910   1.00
H2       0.45408    0.47030    0.94490   1.00
H2       0.51949    0.45317    0.95357   1.00
H2       0.48344    0.38925    0.99177   1.00
H2       0.54313    0.46377    0.80363   1.00
H2       0.57802    0.40827    0.80860   1.00
C2       0.42671    0.56609    0.84031   1.00
C3       0.40306    0.49542    0.83955   1.00
O2       0.37077    0.45825    0.82241   1.00
C3       0.47172    0.60481    0.85613   1.00
H1       0.48936    0.65867    0.85744   1.00
C3a      0.42596    0.46566    0.85410   1.00
H1       0.41045    0.41229    0.85263   1.00
C3b      0.49610    0.57549    0.87019   1.00
C4       0.47337    0.50544    0.86923   1.00
O_3      0.59880    0.50801    0.86239   1.00
C5       0.29961    0.42082    0.82551   1.00
H2       0.28613    0.38481    0.83854   1.00
C5       0.26781    0.38033    0.80606   1.00
H2       0.27895    0.45551    0.82851   1.00
H2       0.27357    0.33430    0.80613   1.00
H2       0.29863    0.41240    0.79307   1.00
C5       0.19223    0.35985    0.80352   1.00
H2       0.16328    0.33256    0.81733   1.00
H2       0.16940    0.32575    0.79017   1.00
H2       0.18641    0.40544    0.80083   1.00
C5       0.62105    0.49992    0.82773   1.00
H2       0.67262    0.50644    0.83025   1.00
H2       0.62744    0.55198    0.82724   1.00
C5       0.59025    0.46228    0.80765   1.00
H2       0.62735    0.48720    0.79510   1.00
C5       0.64006    0.39857    0.29169   1.00
H2       0.66014    0.36600    0.28589   1.00
H2       0.64068    0.39515    0.30849   1.00
C5       0.68703    0.47303    0.28467   1.00
H2       0.73256    0.49944    0.29468   1.00
H2       0.65865    0.50139    0.28497   1.00
O_3      0.28790    0.26041    0.29359   1.00
C4       0.35648    0.18989    0.28306   1.00
C3c      0.42448    0.23199    0.28913   1.00
H1       0.43638    0.24294    0.30504   1.00
C3d      0.34218    0.17547    0.26226   1.00
C3       0.47787    0.26132    0.27486   1.00
O2       0.54373    0.29503    0.28206   1.00
C3       0.39506    0.20564    0.24799   1.00
H1       0.38133    0.19504    0.23216   1.00
C2       0.46402    0.24894    0.25385   1.00
C5       0.24006    0.25413    0.27879   1.00
H2       0.18809    0.23444    0.28529   1.00
H2       0.23653    0.21917    0.26632   1.00
C5       0.26407    0.32464    0.27005   1.00
H2       0.31677    0.34512    0.26407   1.00
H2       0.26679    0.35893    0.28259   1.00
C5       0.21601    0.32205    0.25324   1.00
H2       0.16319    0.30120    0.25908   1.00
H2       0.21509    0.28971    0.24039   1.00
H2       0.23355    0.37425    0.24735   1.00
C5       0.25421    0.06840    0.25573   1.00
C5       0.56648    0.36538    0.28402   1.00
H2       0.25469    0.05063    0.27142   1.00
H2       0.28714    0.05646    0.24596   1.00
H2       0.53400    0.37336    0.29515   1.00
H2       0.56431    0.38909    0.26936   1.00
H2       0.70683    0.47495    0.26900   1.00
H2       0.13631    -0.05642   0.26906   1.00
H2       0.17776    -0.06869   0.24715   1.00
C2       0.19113    0.10546    0.32549   1.00
C3       0.22714    0.07092    0.32125   1.00
O2       0.19997    0.00325    0.32649   1.00
C3       0.21321    0.16950    0.31621   1.00
H1       0.18784    0.19804    0.31954   1.00
C3a      0.28256    0.09984    0.30759   1.00
H1       0.30712    0.07097    0.30362   1.00
C3b      0.26695    0.19709    0.30214   1.00
C4       0.30203    0.16220    0.29770   1.00
O_3      0.27566    0.13859    0.25538   1.00
C5       0.23158    -0.00256   0.34423   1.00
H2       0.28770    0.02012    0.34202   1.00
C5       0.19963    -0.07875   0.34881   1.00
H2       0.22278    0.02338    0.35728   1.00
H2       0.22371    -0.10026   0.33876   1.00
H2       0.14489    -0.10374   0.34437   1.00
C5       0.20675    -0.09334   0.37126   1.00
H2       0.26119    -0.06372   0.37586   1.00
H2       0.18814    -0.14857   0.37364   1.00
H2       0.17555    -0.07987   0.38136   1.00
C5       0.18147    0.03009    0.24769   1.00
H2       0.18274    0.03893    0.23104   1.00
H2       0.15249    0.05276    0.25465   1.00
C5       0.14620    -0.04668   0.25246   1.00
H2       0.09615    -0.07392   0.24460   1.00
C5       0.59670    0.37308    0.28506   1.00
H2       0.57495    0.37938    0.27068   1.00
H2       0.57065    0.38467    0.29741   1.00
C5       0.58168    0.29868    0.28683   1.00
H2       0.52894    0.26460    0.29249   1.00
H2       0.61857    0.29607    0.29743   1.00
O_3      0.90943    0.64210    0.31661   1.00
C4       0.83395    0.64390    0.28293   1.00
C3c      0.76886    0.58619    0.28497   1.00
H1       0.73699    0.58255    0.29767   1.00
C3d      0.87429    0.64809    0.26612   1.00
C3       0.74427    0.53208    0.27094   1.00
O2       0.67718    0.48133    0.27254   1.00
C3       0.85047    0.59373    0.25234   1.00
H1       0.88418    0.59816    0.24009   1.00
C2       0.78508    0.53466    0.25430   1.00
C5       0.97755    0.66215    0.31163   1.00
H2       1.01489    0.70505    0.32129   1.00
H2       0.98870    0.67829    0.29543   1.00
C5       0.98711    0.60109    0.31503   1.00
H2       0.94853    0.55763    0.30581   1.00
H2       0.97647    0.58583    0.33128   1.00
C5       1.05947    0.61781    0.30926   1.00
H2       1.09828    0.66148    0.31831   1.00
H2       1.06931    0.63076    0.29286   1.00
H2       1.06595    0.57307    0.31227   1.00
C5       0.94074    0.75599    0.25393   1.00
C5       0.67245    0.42725    0.28447   1.00
H2       0.91213    0.77586    0.26255   1.00
H2       0.91793    0.74058    0.23849   1.00
H2       0.69163    0.44566    0.30012   1.00
H2       0.70308    0.40520    0.27813   1.00
H2       0.58493    0.27808    0.27171   1.00
H2       1.00336    0.90194    0.25863   1.00
H2       0.98942    0.87524    0.23222   1.00
C2       0.91461    0.80651    0.32630   1.00
C3       0.87385    0.80668    0.31012   1.00
O2       0.87340    0.86559    0.30508   1.00
C3       0.92497    0.75012    0.32829   1.00
H1       0.95445    0.74761    0.34080   1.00
C3a      0.84617    0.75213    0.29616   1.00
H1       0.81835    0.75488    0.28321   1.00
C3b      0.89921    0.69703    0.31401   1.00
C4       0.85958    0.69777    0.29776   1.00
O_3      0.94064    0.70134    0.26425   1.00
C5       0.81386    0.86312    0.31259   1.00
H2       0.76699    0.81873    0.30621   1.00
C5       0.81666    0.92938    0.30611   1.00
H2       0.81165    0.85928    0.32946   1.00
H2       0.80036    0.92431    0.28996   1.00
H2       0.87109    0.97061    0.30660   1.00
C5       0.77247    0.94778    0.31956   1.00
H2       0.71950    0.90395    0.32017   1.00
H2       0.77124    0.99291    0.31337   1.00
H2       0.79350    0.96154    0.33528   1.00
C5       1.01463    0.81267    0.25190   1.00
H2       1.04017    0.79685    0.24044   1.00
H2       1.04074    0.81777    0.26665   1.00
C5       1.02035    0.88112    0.24599   1.00
H2       1.07431    0.91931    0.24258   1.00
C5       0.76564    0.39657    0.28652   1.00
H2       0.79497    0.42073    0.27249   1.00
H2       0.80154    0.42211    0.29929   1.00
C5       0.70427    0.40863    0.28799   1.00
H2       0.72047    0.46031    0.29415   1.00
H2       0.66434    0.36966    0.29806   1.00
O_3      0.73052    0.08505    0.31554   1.00
C4       0.80999    0.16609    0.28294   1.00
C3c      0.81457    0.22982    0.28549   1.00
H1       0.84059    0.26063    0.29859   1.00
C3d      0.77671    0.12717    0.26561   1.00
C3       0.78504    0.25436    0.27145   1.00
O2       0.79872    0.32048    0.27362   1.00
C3       0.74613    0.15088    0.25181   1.00
H1       0.71907    0.11818    0.23913   1.00
C2       0.74963    0.21487    0.25427   1.00
C5       0.68491    0.01704    0.30976   1.00
H2       0.69104    -0.02042   0.31918   1.00
H2       0.69229    0.00828    0.29353   1.00
C5       0.61292    0.00439    0.31261   1.00
H2       0.60738    0.04305    0.30364   1.00
H2       0.60592    0.01266    0.32890   1.00
C5       0.55985    -0.06797   0.30596   1.00
H2       0.56540    -0.10683   0.31476   1.00
H2       0.56528    -0.07551   0.28953   1.00
H2       0.50756    -0.07677   0.30858   1.00
C5       0.82310    0.06531    0.25324   1.00
C5       0.74686    0.32166    0.28525   1.00
H2       0.87037    0.09425    0.26238   1.00
H2       0.83145    0.08978    0.23802   1.00
H2       0.74510    0.30098    0.30074   1.00
H2       0.69514    0.29030    0.27835   1.00
H2       0.68181    0.40630    0.27271   1.00
H2       0.91014    0.00688    0.25804   1.00
H2       0.89954    0.02317    0.23168   1.00
C2       0.89200    0.08531    0.32625   1.00
C3       0.93386    0.12880    0.31064   1.00
O2       0.99492    0.13226    0.30601   1.00
C3       0.82414    0.07221    0.32771   1.00
H1       0.79134    0.04057    0.33979   1.00
C3a      0.90688    0.15646    0.29671   1.00
H1       0.93837    0.18649    0.28417   1.00
C3b      0.79682    0.09802    0.31344   1.00
C4       0.83817    0.14039    0.29776   1.00
O_3      0.76632    0.06194    0.26318   1.00
C5       1.04978    0.19194    0.31431   1.00
H2       1.05109    0.23867    0.30828   1.00
C5       1.11534    0.19258    0.30824   1.00
H2       1.04614    0.19202    0.33117   1.00
H2       1.12795    0.21092    0.29230   1.00
H2       1.10410    0.13873    0.30826   1.00
C5       1.17580    0.23674    0.32241   1.00
H2       1.18285    0.28886    0.32346   1.00
H2       1.22372    0.24058    0.31655   1.00
H2       1.16748    0.21398    0.33793   1.00
C5       0.80887    -0.00743   0.25057   1.00
H2       0.76905    -0.03273   0.23867   1.00
H2       0.78686    -0.03561   0.26499   1.00
C5       0.87374    -0.00976   0.24504   1.00
H2       0.86028    -0.06278   0.24115   1.00
C5       0.84493    0.64157    0.69621   1.00
H2       0.86153    0.60301    0.69667   1.00
H2       0.89247    0.69196    0.69572   1.00
C5       0.80179    0.63081    0.67691   1.00
H2       0.83520    0.65446    0.66347   1.00
H2       0.76886    0.65391    0.67900   1.00
O_3      0.75514    0.73008    0.78750   1.00
C4       0.80976    0.64312    0.78319   1.00
C3c      0.83414    0.65200    0.76320   1.00
H1       0.87579    0.70094    0.75849   1.00
C3d      0.75609    0.57867    0.78910   1.00
C3       0.80480    0.59861    0.74893   1.00
O2       0.83663    0.60854    0.73044   1.00
C3       0.72592    0.52579    0.77482   1.00
H1       0.68331    0.47799    0.77986   1.00
C2       0.74945    0.53412    0.75448   1.00
C5       0.69437    0.70038    0.79898   1.00
H2       0.69730    0.73296    0.81205   1.00
H2       0.68223    0.64944    0.80498   1.00
C5       0.63712    0.69170    0.78505   1.00
H2       0.63543    0.66074    0.77169   1.00
H2       0.64947    0.74291    0.77930   1.00
C5       0.56845    0.65734    0.79618   1.00
H2       0.56992    0.68775    0.80961   1.00
H2       0.55495    0.60525    0.80130   1.00
H2       0.52748    0.65280    0.78588   1.00
C5       0.76282    0.55059    0.82191   1.00
C5       0.80743    0.63338    0.71626   1.00
H2       0.81680    0.59199    0.82340   1.00
H2       0.76198    0.50288    0.81715   1.00
H2       0.81478    0.68359    0.72138   1.00
H2       0.75139    0.59816    0.71428   1.00
H2       0.76906    0.57539    0.67332   1.00
H2       0.81861    0.58866    0.86230   1.00
H2       0.79002    0.49994    0.85642   1.00
C2       0.89167    0.80556    0.82661   1.00
C3       0.92217    0.76486    0.82396   1.00
O2       0.96654    0.76508    0.83834   1.00
C3       0.83620    0.79338    0.81397   1.00
H1       0.81288    0.82479    0.81526   1.00
C3a      0.89583    0.71243    0.80929   1.00
H1       0.91723    0.67923    0.80824   1.00
C3b      0.80875    0.73981    0.79985   1.00
C4       0.83845    0.69872    0.79744   1.00
O_3      0.72686    0.56873    0.80813   1.00
C5       1.03453    0.80540    0.83169   1.00
H2       1.04331    0.78566    0.81715   1.00
C5       1.08024    0.80209    0.84823   1.00
H2       1.04767    0.85940    0.82942   1.00
H2       1.08028    0.75317    0.84660   1.00
H2       1.05593    0.79982    0.86312   1.00
C5       1.15369    0.86306    0.84759   1.00
H2       1.17522    0.86777    0.83214   1.00
H2       1.18673    0.85599    0.85868   1.00
H2       1.15533    0.91172    0.85177   1.00
C5       0.72818    0.53897    0.84248   1.00
H2       0.67846    0.49041    0.84185   1.00
H2       0.71650    0.58066    0.84512   1.00
C5       0.77301    0.53729    0.85977   1.00
H2       0.74351    0.52171    0.87416   1.00
C5       0.59169    0.43486    0.77264   1.00
H2       0.62936    0.41723    0.77376   1.00
H2       0.58875    0.45316    0.78803   1.00
C5       0.61705    0.49381    0.75710   1.00
H2       0.65504    0.54304    0.76414   1.00
H2       0.57331    0.49844    0.75135   1.00
O_3      0.24736    0.18959    0.77762   1.00
C4       0.35676    0.16545    0.78317   1.00
C3c      0.41510    0.22998    0.78543   1.00
H1       0.41942    0.26125    0.79836   1.00
C3d      0.35259    0.12511    0.76636   1.00
C3       0.46811    0.25555    0.77101   1.00
O2       0.52707    0.31530    0.77550   1.00
C3       0.40468    0.15096    0.75178   1.00
H1       0.39811    0.11916    0.73878   1.00
C2       0.46368    0.21640    0.75372   1.00
C5       0.20005    0.14588    0.76302   1.00
H2       0.14709    0.11756    0.76913   1.00
H2       0.21388    0.10789    0.75740   1.00
C5       0.20146    0.18975    0.74538   1.00
H2       0.25478    0.21951    0.73964   1.00
H2       0.18696    0.22705    0.75114   1.00
C5       0.15302    0.14581    0.72842   1.00
H2       0.09976    0.11559    0.73409   1.00
H2       0.16887    0.11018    0.72218   1.00
H2       0.15362    0.17887    0.71586   1.00
C5       0.29794    0.01096    0.77295   1.00
C5       0.52392    0.37130    0.76725   1.00
H2       0.30095    0.01907    0.78965   1.00
H2       0.34303    0.00717    0.76798   1.00
H2       0.48051    0.37450    0.77408   1.00
H2       0.51628    0.36726    0.75043   1.00
H2       0.64342    0.48538    0.74402   1.00
H2       0.21054    -0.10412   0.79830   1.00
H2       0.26908    -0.11870   0.78313   1.00
C2       0.19053    0.08805    0.82526   1.00
C3       0.24659    0.07844    0.82891   1.00
O2       0.24150    0.03067    0.84285   1.00
C3       0.19253    0.12640    0.80806   1.00
H1       0.15123    0.13616    0.80512   1.00
C3a      0.30189    0.10545    0.81521   1.00
H1       0.34259    0.09434    0.81759   1.00
C3b      0.24657    0.15132    0.79411   1.00
C4       0.30177    0.14083    0.79760   1.00
O_3      0.29406    0.06348    0.76262   1.00
C5       0.27439    0.06297    0.86109   1.00
H2       0.32956    0.10018    0.85851   1.00
C5       0.26750    0.00698    0.87555   1.00
H2       0.25003    0.09043    0.86802   1.00
H2       0.30651    -0.00711   0.87138   1.00
H2       0.21682    -0.03897   0.87271   1.00
C5       0.27474    0.02820    0.89805   1.00
H2       0.32317    0.07705    0.90028   1.00
H2       0.27520    -0.01140   0.90794   1.00
H2       0.23089    0.03412    0.90316   1.00
C5       0.23328    -0.05578   0.76811   1.00
H2       0.23614    -0.06972   0.75208   1.00
H2       0.18917    -0.04696   0.76910   1.00
C5       0.22281    -0.11344   0.78265   1.00
H2       0.17938    -0.16271   0.77739   1.00
C5       0.57558    0.18387    0.77844   1.00
H2       0.59865    0.24017    0.77812   1.00
H2       0.56138    0.16853    0.79450   1.00
C5       0.51143    0.15077    0.76477   1.00
H2       0.46661    0.14702    0.77292   1.00
H2       0.49970    0.09877    0.76011   1.00
O_3      0.79516    0.05226    0.78074   1.00
C4       0.83462    0.19130    0.78314   1.00
C3c      0.77446    0.19319    0.78673   1.00
H1       0.74665    0.17262    0.80070   1.00
C3d      0.87060    0.21925    0.76497   1.00
C3       0.74871    0.22054    0.77234   1.00
O2       0.69438    0.22821    0.77794   1.00
C3       0.84442    0.24534    0.75044   1.00
H1       0.87249    0.26401    0.73642   1.00
C2       0.78325    0.24697    0.75373   1.00
C5       0.83056    0.03874    0.76549   1.00
H2       0.85632    0.01140    0.77151   1.00
H2       0.86993    0.08688    0.75815   1.00
C5       0.77877    -0.00610   0.74963   1.00
H2       0.75167    0.02039    0.74401   1.00
H2       0.74009    -0.05425   0.75708   1.00
C5       0.81347    -0.02132   0.73204   1.00
H2       0.84104    -0.04734   0.73756   1.00
H2       0.85040    0.02654    0.72415   1.00
H2       0.77465    -0.05537   0.72082   1.00
C5       0.98615    0.27020    0.76819   1.00
C5       0.63261    0.17021    0.77197   1.00
H2       0.98371    0.27099    0.78503   1.00
H2       0.99348    0.31952    0.76220   1.00
H2       0.62671    0.12378    0.77974   1.00
H2       0.63020    0.16072    0.75525   1.00
H2       0.51873    0.18224    0.75093   1.00
H2       1.10541    0.29346    0.79066   1.00
H2       1.12205    0.36378    0.77386   1.00
C2       0.91133    0.10193    0.82527   1.00
C3       0.92894    0.17086    0.82742   1.00
O2       0.98313    0.21432    0.83952   1.00
C3       0.86554    0.06298    0.80963   1.00
H1       0.84966    0.00962    0.80791   1.00
C3a      0.90221    0.19951    0.81375   1.00
H1       0.91923    0.25332    0.81487   1.00
C3b      0.84077    0.09218    0.79566   1.00
C4       0.85915    0.16098    0.79762   1.00
O_3      0.92721    0.21401    0.76003   1.00
C5       0.95930    0.22445    0.85824   1.00
H2       0.92569    0.24693    0.85602   1.00
C5       1.02206    0.27384    0.87058   1.00
H2       0.93019    0.17546    0.86667   1.00
H2       1.03977    0.32662    0.86512   1.00
H2       1.06346    0.26252    0.86699   1.00
C5       1.00838    0.26867    0.89361   1.00
H2       0.96350    0.27474    0.89676   1.00
H2       1.05327    0.30911    0.90190   1.00
H2       0.99901    0.21872    0.89979   1.00
C5       1.04703    0.26294    0.76207   1.00
H2       1.05644    0.27394    0.74555   1.00
H2       1.03318    0.20873    0.76428   1.00
C5       1.11117    0.31015    0.77450   1.00
H2       1.15602    0.30878    0.76823   1.00
C5       -0.04509   0.35053    0.46175   1.00
H2       -0.05746   0.38554    0.47012   1.00
H2       0.01066    0.37173    0.46366   1.00
C5       -0.08501   0.27830    0.47112   1.00
H2       -0.05876   0.27451    0.48492   1.00
H2       -0.08960   0.23955    0.45988   1.00
O_3      -0.00253   0.39114    0.35715   1.00
C4       -0.02314   0.47677    0.38360   1.00
C3c      -0.01360   0.45910    0.40326   1.00
H1       0.03596    0.46752    0.40773   1.00
C3d      -0.08788   0.46628    0.37818   1.00
C3       -0.06765   0.42956    0.41730   1.00
O2       -0.05254   0.42138    0.43696   1.00
C3       -0.14212   0.43568    0.39200   1.00
H1       -0.19142   0.42642    0.38692   1.00
C2       -0.13354   0.41682    0.41186   1.00
C5       -0.04879   0.36776    0.34074   1.00
H2       -0.02229   0.37943    0.32580   1.00
H2       -0.08203   0.39113    0.34101   1.00
C5       -0.09304   0.29088    0.34277   1.00
H2       -0.11803   0.27912    0.35794   1.00
H2       -0.05940   0.26805    0.34229   1.00
C5       -0.14664   0.26142    0.32585   1.00
H2       -0.12205   0.27338    0.31066   1.00
H2       -0.18173   0.28241    0.32675   1.00
H2       -0.17750   0.20503    0.32733   1.00
C5       -0.08459   0.54667    0.35662   1.00
C5       -0.06171   0.35531    0.43951   1.00
H2       -0.02937   0.58199    0.35941   1.00
H2       -0.11462   0.55952    0.36735   1.00
H2       -0.02635   0.34823    0.42933   1.00
H2       -0.11480   0.31418    0.43584   1.00
H2       -0.13711   0.26620    0.47607   1.00
H2       -0.01185   0.65726    0.32831   1.00
H2       -0.08172   0.66057    0.34079   1.00
C2       0.13712    0.55959    0.33948   1.00
C3       0.12998    0.60323    0.35330   1.00
O2       0.16224    0.67251    0.34975   1.00
C3       0.09250    0.48845    0.34129   1.00
H1       0.09777    0.45357    0.33128   1.00
C3a      0.07800    0.57540    0.36810   1.00
H1       0.07073    0.60972    0.37781   1.00
C3b      0.03949    0.46110    0.35559   1.00
C4       0.03179    0.50461    0.36912   1.00
O_3      -0.10125   0.47798    0.35856   1.00
C5       0.22099    0.70679    0.36199   1.00
H2       0.20783    0.69765    0.37844   1.00
C5       0.25302    0.78300    0.35742   1.00
H2       0.25832    0.68984    0.35840   1.00
H2       0.22427    0.80305    0.36593   1.00
H2       0.24488    0.78819    0.34101   1.00
C5       0.32955    0.82395    0.36273   1.00
H2       0.33723    0.81391    0.37873   1.00
H2       0.34960    0.87965    0.36082   1.00
H2       0.36030    0.81035    0.35248   1.00
C5       -0.10129   0.55679    0.33499   1.00
H2       -0.15776   0.53056    0.33333   1.00
H2       -0.08285   0.53080    0.32453   1.00
C5       -0.06847   0.63279    0.32940   1.00
H2       -0.08743   0.63829    0.31438   1.00
C5       0.38544    1.05325    0.45884   1.00
H2       0.43010    1.06262    0.46819   1.00
H2       0.34782    0.99809    0.46050   1.00
C5       0.35544    1.09684    0.46698   1.00
H2       0.32187    1.07185    0.48030   1.00
H2       0.32529    1.10406    0.45490   1.00
O_3      0.40184    1.00946    0.35490   1.00
C4       0.49989    1.02310    0.38362   1.00
C3c      0.46906    1.01518    0.40267   1.00
H1       0.42505    0.96689    0.40667   1.00
C3d      0.55778    1.08613    0.37882   1.00
C3       0.49366    1.06929    0.41670   1.00
O2       0.46618    1.05533    0.43591   1.00
C3       0.58161    1.14051    0.39260   1.00
H1       0.62467    1.18861    0.38797   1.00
C2       0.55059    1.13360    0.41185   1.00
C5       0.43053    1.05566    0.33859   1.00
H2       0.41741    1.02933    0.32360   1.00
H2       0.48723    1.08595    0.33986   1.00
C5       0.40204    1.10376    0.33935   1.00
H2       0.41348    1.12864    0.35454   1.00
H2       0.34549    1.07304    0.33788   1.00
C5       0.43259    1.15747    0.32249   1.00
H2       0.42178    1.13296    0.30729   1.00
H2       0.48879    1.18971    0.32436   1.00
H2       0.41005    1.19121    0.32302   1.00
C5       0.63593    1.07719    0.35921   1.00
C5       0.41173    1.06890    0.43699   1.00
H2       0.61223    1.02152    0.36209   1.00
H2       0.67708    1.10515    0.37062   1.00
H2       0.37051    1.03541    0.42619   1.00
H2       0.42785    1.12295    0.43305   1.00
H2       0.39662    1.14783    0.47233   1.00
H2       0.67271    0.99926    0.33265   1.00
H2       0.74550    1.06623    0.34611   1.00
C2       0.42288    0.86298    0.33945   1.00
C3       0.46930    0.86669    0.35438   1.00
O2       0.50319    0.83067    0.35207   1.00
C3       0.40032    0.91103    0.34014   1.00
H1       0.36346    0.90849    0.32925   1.00
C3a      0.49325    0.91869    0.36917   1.00
H1       0.53170    0.92321    0.37978   1.00
C3b      0.42589    0.96399    0.35446   1.00
C4       0.47283    0.96825    0.36911   1.00
O_3      0.58684    1.09817    0.35971   1.00
C5       0.47291    0.77168    0.36431   1.00
H2       0.47436    0.78498    0.38069   1.00
C5       0.51390    0.73538    0.36117   1.00
H2       0.41882    0.73698    0.35983   1.00
H2       0.56108    0.76158    0.37052   1.00
H2       0.53063    0.74284    0.34502   1.00
C5       0.47308    0.65880    0.36641   1.00
H2       0.45224    0.65212    0.38204   1.00
H2       0.50619    0.63549    0.36559   1.00
H2       0.43035    0.63020    0.35546   1.00
C5       0.66731    1.09254    0.33809   1.00
H2       0.70080    1.14876    0.33656   1.00
H2       0.62546    1.07668    0.32679   1.00
C5       0.70749    1.05550    0.33391   1.00
H2       0.73542    1.07335    0.31930   1.00
C5       0.66722    0.61425    0.45894   1.00
H2       0.63194    0.56950    0.46826   1.00
H2       0.64957    0.65178    0.46061   1.00
C5       0.74078    0.64433    0.46712   1.00
H2       0.74921    0.67779    0.48046   1.00
H2       0.77821    0.67462    0.45506   1.00
O_3      0.60768    0.59844    0.35497   1.00
C4       0.52322    0.50011    0.38362   1.00
C3c      0.54595    0.53082    0.40269   1.00
H1       0.54154    0.57475    0.40671   1.00
C3d      0.52853    0.44233    0.37880   1.00
C3       0.57547    0.50622    0.41672   1.00
O2       0.58881    0.53358    0.43595   1.00
C3       0.55908    0.41851    0.39258   1.00
H1       0.56426    0.37554    0.38793   1.00
C2       0.58302    0.44942    0.41185   1.00
C5       0.62538    0.56993    0.33866   1.00
H2       0.61223    0.58311    0.32367   1.00
H2       0.59908    0.51323    0.33990   1.00
C5       0.70200    0.59857    0.33946   1.00
H2       0.71539    0.58707    0.35465   1.00
H2       0.72774    0.65512    0.33802   1.00
C5       0.72536    0.56822    0.32259   1.00
H2       0.71173    0.57909    0.30739   1.00
H2       0.70150    0.51202    0.32443   1.00
H2       0.78167    0.59087    0.32315   1.00
C5       0.44166    0.36421    0.35912   1.00
C5       0.65679    0.58812    0.43707   1.00
H2       0.40957    0.38778    0.36200   1.00
H2       0.42847    0.32299    0.37051   1.00
H2       0.66449    0.62938    0.42630   1.00
H2       0.69482    0.57213    0.43314   1.00
H2       0.75067    0.60319    0.47245   1.00
H2       0.32707    0.32738    0.33250   1.00
H2       0.32133    0.25457    0.34593   1.00
C2       0.44013    0.57714    0.33945   1.00
C3       0.39738    0.53057    0.35435   1.00
O2       0.32748    0.49657    0.35199   1.00
C3       0.51076    0.59983    0.34018   1.00
H1       0.54510    0.63680    0.32932   1.00
C3a      0.42542    0.50661    0.36913   1.00
H1       0.39146    0.46805    0.37971   1.00
C3b      0.53814    0.57425    0.35450   1.00
C4       0.49543    0.52717    0.36911   1.00
O_3      0.51169    0.41340    0.35967   1.00
C5       0.29858    0.52666    0.36424   1.00
H2       0.31033    0.52512    0.38062   1.00
C5       0.22131    0.48556    0.36105   1.00
H2       0.31789    0.58076    0.35979   1.00
H2       0.20036    0.43832    0.37037   1.00
H2       0.21218    0.46893    0.34489   1.00
C5       0.18538    0.52621    0.36630   1.00
H2       0.19941    0.54695    0.38193   1.00
H2       0.12898    0.49301    0.36544   1.00
H2       0.19949    0.56899    0.35537   1.00
C5       0.42582    0.33297    0.33798   1.00
H2       0.44867    0.29958    0.33645   1.00
H2       0.45181    0.37490    0.32671   1.00
C5       0.34863    0.29268    0.33375   1.00
H2       0.33871    0.26486    0.31914   1.00
C5       0.30990    0.37595    0.29599   1.00
H2       0.35927    0.42197    0.29221   1.00
H2       0.31787    0.33183    0.29369   1.00
C5       0.29159    0.37975    0.31839   1.00
H2       0.31920    0.36300    0.32876   1.00
H2       0.23573    0.34661    0.32076   1.00
O_3      0.05685    0.24866    0.22197   1.00
C4       0.19114    0.35698    0.21676   1.00
C3c      0.22776    0.35500    0.23369   1.00
H1       0.23469    0.31156    0.23595   1.00
C3d      0.18354    0.41450    0.21394   1.00
C3       0.25508    0.40816    0.24806   1.00
O2       0.29723    0.40660    0.26282   1.00
C3       0.20955    0.46691    0.22843   1.00
H1       0.20037    0.50886    0.22600   1.00
C2       0.24607    0.46538    0.24575   1.00
C5       0.00744    0.26589    0.21603   1.00
H2       -0.02897   0.22952    0.20465   1.00
H2       0.03194    0.31822    0.20941   1.00
C5       -0.03238   0.26359    0.23485   1.00
H2       0.00424    0.29850    0.24645   1.00
H2       -0.05713   0.21097    0.24122   1.00
C5       -0.08583   0.28413    0.22987   1.00
H2       -0.12227   0.24977    0.21820   1.00
H2       -0.06098   0.33750    0.22417   1.00
H2       -0.11542   0.28069    0.24372   1.00
C5       0.18378    0.44337    0.18078   1.00
C5       0.25889    0.37412    0.28040   1.00
H2       0.20421    0.41039    0.17554   1.00
H2       0.22738    0.49592    0.18338   1.00
H2       0.21968    0.32031    0.27688   1.00
H2       0.23156    0.39992    0.28658   1.00
H2       0.30716    0.43324    0.32284   1.00
H2       0.17287    0.41038    0.13813   1.00
H2       0.22286    0.50151    0.14293   1.00
C2       0.10033    0.19353    0.17379   1.00
C3       0.16895    0.24544    0.17145   1.00
O2       0.20196    0.25398    0.15318   1.00
C3       0.06413    0.19534    0.19105   1.00
H1       0.01209    0.15541    0.19355   1.00
C3a      0.19897    0.29830    0.18593   1.00
H1       0.25027    0.33972    0.18332   1.00
C3b      0.09343    0.24913    0.20507   1.00
C4       0.16130    0.30125    0.20257   1.00
O_3      0.14360    0.41662    0.19839   1.00
C5       0.24554    0.22629    0.15421   1.00
H2       0.28479    0.25145    0.16633   1.00
C5       0.28091    0.23876    0.13359   1.00
H2       0.21606    0.17044    0.15730   1.00
H2       0.32355    0.29251    0.13307   1.00
H2       0.24354    0.23406    0.12180   1.00
C5       0.30730    0.18909    0.12920   1.00
H2       0.34022    0.19054    0.14191   1.00
H2       0.33760    0.20333    0.11492   1.00
H2       0.26427    0.13574    0.12711   1.00
C5       0.13817    0.44592    0.16425   1.00
H2       0.12741    0.48763    0.16792   1.00
H2       0.08846    0.39728    0.16470   1.00
C5       0.17055    0.45633    0.14307   1.00
H2       0.13939    0.46504    0.13174   1.00
C5       0.38757    0.57921    0.22011   1.00
H2       0.39685    0.56500    0.23541   1.00
H2       0.40320    0.55230    0.20915   1.00
C5       0.31083    0.55510    0.21767   1.00
H2       0.28150    0.49999    0.21366   1.00
H2       0.30352    0.58510    0.20556   1.00
O_3      0.63281    0.89168    0.18046   1.00
C4       0.64394    0.83407    0.21708   1.00
C3c      0.59115    0.76578    0.21676   1.00
H1       0.59142    0.73140    0.20543   1.00
C3d      0.64315    0.87779    0.23215   1.00
C3       0.53694    0.74102    0.23075   1.00
O2       0.49175    0.67194    0.23108   1.00
C3       0.58857    0.85362    0.24586   1.00
H1       0.58891    0.88965    0.25668   1.00
C2       0.53438    0.78491    0.24561   1.00
C5       0.64539    0.95894    0.18290   1.00
H2       0.68611    0.99557    0.17251   1.00
H2       0.66090    0.97703    0.19880   1.00
C5       0.57967    0.95869    0.17805   1.00
H2       0.53852    0.92069    0.18804   1.00
H2       0.56502    0.94117    0.16209   1.00
C5       0.58819    1.02970    0.18104   1.00
H2       0.62953    1.06800    0.17121   1.00
H2       0.60050    1.04624    0.19713   1.00
H2       0.54011    1.02885    0.17699   1.00
C5       0.74872    0.95740    0.24337   1.00
C5       0.43528    0.65637    0.21848   1.00
H2       0.77340    0.93050    0.23636   1.00
H2       0.73519    0.93978    0.25938   1.00
H2       0.45246    0.67096    0.20247   1.00
H2       0.40807    0.68405    0.22310   1.00
H2       0.28853    0.56076    0.23217   1.00
H2       0.89515    1.03244    0.23867   1.00
H2       0.86846    1.02542    0.26499   1.00
C2       0.80602    0.91429    0.17354   1.00
C3       0.81119    0.88237    0.19130   1.00
O2       0.87348    0.89135    0.19737   1.00
C3       0.74513    0.91588    0.17013   1.00
H1       0.73887    0.93837    0.15643   1.00
C3a      0.75690    0.85468    0.20536   1.00
H1       0.76321    0.83390    0.21943   1.00
C3b      0.69214    0.89025    0.18444   1.00
C4       0.69778    0.85948    0.20225   1.00
O_3      0.69106    0.94661    0.23217   1.00
C5       0.87842    0.83339    0.19237   1.00
H2       0.83736    0.78662    0.19988   1.00
C5       0.94805    0.84682    0.19986   1.00
H2       0.87479    0.82491    0.17565   1.00
H2       0.94461    0.83680    0.21647   1.00
H2       0.98479    0.90224    0.19782   1.00
C5       0.97318    0.80365    0.18869   1.00
H2       0.93353    0.74885    0.18952   1.00
H2       1.02098    0.81052    0.19568   1.00
H2       0.98521    0.81931    0.17244   1.00
C5       0.79932    1.03368    0.24330   1.00
H2       0.77928    1.05926    0.25332   1.00
H2       0.80154    1.05326    0.22765   1.00
C5       0.87090    1.04988    0.25014   1.00
H2       0.90444    1.10586    0.25193   1.00
C5       0.39651    0.76554    0.21346   1.00
H2       0.42068    0.79488    0.22749   1.00
H2       0.42204    0.80142    0.20069   1.00
C5       0.40854    0.70415    0.21200   1.00
H2       0.46021    0.72032    0.20584   1.00
H2       0.36954    0.66421    0.20194   1.00
O_3      0.08500    0.73050    0.18447   1.00
C4       0.16609    0.80999    0.21706   1.00
C3c      0.22981    0.81454    0.21451   1.00
H1       0.26061    0.84054    0.20141   1.00
C3d      0.12718    0.77674    0.23439   1.00
C3       0.25435    0.78501    0.22855   1.00
O2       0.32045    0.79867    0.22637   1.00
C3       0.15089    0.74615    0.24820   1.00
H1       0.11820    0.71912    0.26088   1.00
C2       0.21487    0.74963    0.24573   1.00
C5       0.01699    0.68491    0.19026   1.00
H2       -0.02047   0.69105    0.18084   1.00
H2       0.00825    0.69231    0.20649   1.00
C5       0.00431    0.61291    0.18741   1.00
H2       0.04297    0.60737    0.19638   1.00
H2       0.01256    0.60589    0.17113   1.00
C5       -0.06805   0.55987    0.19407   1.00
H2       -0.10691   0.56542    0.18528   1.00
H2       -0.07556   0.56532    0.21050   1.00
H2       -0.07687   0.50756    0.19146   1.00
C5       0.06537    0.82318    0.24677   1.00
C5       0.32160    0.74678    0.21474   1.00
H2       0.09431    0.87044    0.23762   1.00
H2       0.08986    0.83154    0.26199   1.00
H2       0.30091    0.74502    0.19925   1.00
H2       0.29024    0.69507    0.22165   1.00
H2       0.40621    0.68170    0.22728   1.00
H2       0.00698    0.91025    0.24196   1.00
H2       0.02329    0.89967    0.26833   1.00
C2       0.08531    0.89200    0.17375   1.00
C3       0.12883    0.93386    0.18935   1.00
O2       0.13232    0.99495    0.19398   1.00
C3       0.07218    0.82413    0.17229   1.00
H1       0.04052    0.79132    0.16021   1.00
C3a      0.15649    0.90689    0.20329   1.00
H1       0.18653    0.93838    0.21582   1.00
C3b      0.09799    0.79681    0.18656   1.00
C4       0.14039    0.83817    0.20224   1.00
O_3      0.06197    0.76638    0.23683   1.00
C5       0.19200    1.04979    0.18567   1.00
H2       0.23872    1.05109    0.19170   1.00
C5       0.19266    1.11537    0.19174   1.00
H2       0.19205    1.04612    0.16881   1.00
H2       0.21103    1.12798    0.20768   1.00
H2       0.13882    1.10414    0.19173   1.00
C5       0.23683    1.17580    0.17756   1.00
H2       0.28894    1.18283    0.17651   1.00
H2       0.24070    1.22373    0.18342   1.00
H2       0.21405    1.16748    0.16205   1.00
C5       -0.00736   0.80898    0.24944   1.00
H2       -0.03266   0.76917    0.26135   1.00
H2       -0.03556   0.78695    0.23503   1.00
C5       -0.00965   0.87386    0.25497   1.00
H2       -0.06267   0.86043    0.25886   1.00
C5       1.02836    0.59692    0.53207   1.00
H2       1.06904    0.65081    0.53416   1.00
H2       0.97939    0.59704    0.53267   1.00
C5       1.03704    0.57106    0.51117   1.00
H2       1.01489    0.58774    0.49888   1.00
H2       1.01124    0.51438    0.51118   1.00
O_3      0.93072    0.38335    0.61633   1.00
C4       1.02357    0.52457    0.61655   1.00
C3c      1.01615    0.54891    0.59769   1.00
H1       0.96839    0.54613    0.59388   1.00
C3d      1.08655    0.52957    0.62133   1.00
C3       1.06948    0.57619    0.58337   1.00
O2       1.06142    0.60651    0.56632   1.00
C3       1.13931    0.55550    0.60696   1.00
H1       1.18585    0.55609    0.61103   1.00
C2       1.13241    0.57965    0.58772   1.00
C5       0.95745    0.34538    0.62552   1.00
H2       0.92394    0.31171    0.63789   1.00
H2       1.00905    0.37967    0.63203   1.00
C5       0.96307    0.30097    0.60924   1.00
H2       0.99499    0.33446    0.59662   1.00
H2       0.91119    0.26653    0.60298   1.00
C5       0.99411    0.25958    0.61782   1.00
H2       0.96275    0.22637    0.63052   1.00
H2       1.04683    0.29394    0.62343   1.00
H2       0.99643    0.22633    0.60581   1.00
C5       1.11546    0.55029    0.65478   1.00
C5       1.03426    0.55850    0.55035   1.00
H2       1.07612    0.56483    0.65786   1.00
H2       1.16456    0.59731    0.65109   1.00
H2       0.98298    0.51556    0.55465   1.00
H2       1.06713    0.53610    0.54655   1.00
H2       1.09212    0.59254    0.50732   1.00
H2       1.07919    0.55424    0.69656   1.00
H2       1.16881    0.61294    0.69137   1.00
C2       0.86087    0.43410    0.65978   1.00
C3       0.90463    0.50548    0.65948   1.00
O2       0.90693    0.54472    0.67580   1.00
C3       0.87018    0.39436    0.64493   1.00
H1       0.83644    0.33979    0.64442   1.00
C3a      0.95717    0.53505    0.64489   1.00
H1       0.99264    0.58928    0.64559   1.00
C3b      0.92382    0.42367    0.63086   1.00
C4       0.96793    0.49451    0.63078   1.00
O_3      1.09478    0.50168    0.63905   1.00
C5       0.86966    0.57788    0.67149   1.00
H2       0.89068    0.61170    0.65793   1.00
C5       0.87564    0.62102    0.69008   1.00
H2       0.81492    0.54017    0.66865   1.00
H2       0.92600    0.66885    0.68956   1.00
H2       0.87632    0.59244    0.70375   1.00
C5       0.81737    0.63743    0.69153   1.00
H2       0.81402    0.66106    0.67712   1.00
H2       0.82653    0.67347    0.70422   1.00
H2       0.76735    0.59053    0.69466   1.00
C5       1.12507    0.51789    0.67380   1.00
H2       1.17202    0.51423    0.67194   1.00
H2       1.08143    0.46475    0.67494   1.00
C5       1.12931    0.55826    0.69306   1.00
H2       1.14337    0.53740    0.70628   1.00
C5       0.58268    -0.03336   0.53396   1.00
H2       0.59196    -0.07638   0.53679   1.00
H2       0.63323    0.01374    0.53522   1.00
C5       0.55317    -0.03983   0.51237   1.00
H2       0.59456    -0.01972   0.50082   1.00
H2       0.52542    -0.01093   0.51137   1.00
O_3      0.46135    0.07590    0.61419   1.00
C4       0.50093    -0.02360   0.61656   1.00
C3c      0.53580    -0.01821   0.59843   1.00
H1       0.58323    0.02795    0.59520   1.00
C3d      0.43970    -0.08456   0.62061   1.00
C3       0.50982    -0.07147   0.58409   1.00
O2       0.55074    -0.06588   0.56791   1.00
C3       0.41304    -0.13717   0.60619   1.00
H1       0.36471    -0.18198   0.60963   1.00
C2       0.44727    -0.13226   0.58767   1.00
C5       0.39543    0.05292    0.62209   1.00
H2       0.39520    0.08757    0.63406   1.00
H2       0.37372    0.00080    0.62872   1.00
C5       0.35035    0.05072    0.60470   1.00
H2       0.35210    0.01761    0.59249   1.00
H2       0.37215    0.10311    0.59833   1.00
C5       0.27681    0.02383    0.61185   1.00
H2       0.27474    0.05638    0.62415   1.00
H2       0.25419    -0.02937   0.61757   1.00
H2       0.24497    0.02401    0.59904   1.00
C5       0.42289    -0.11388   0.65408   1.00
C5       0.53598    -0.03628   0.55120   1.00
H2       0.47685    -0.07709   0.65803   1.00
H2       0.41807    -0.16451   0.65088   1.00
H2       0.54685    0.01614    0.55514   1.00
H2       0.48132    -0.06628   0.54643   1.00
H2       0.51768    -0.09437   0.50831   1.00
H2       0.45560    -0.07931   0.69634   1.00
H2       0.42043    -0.16975   0.69138   1.00
C2       0.57330    0.13940    0.65969   1.00
C3       0.59665    0.09216    0.66052   1.00
O2       0.62861    0.08711    0.67771   1.00
C3       0.52858    0.13332    0.64379   1.00
H1       0.51118    0.16972    0.64243   1.00
C3a      0.57376    0.03950    0.64597   1.00
H1       0.58903    0.00147    0.64750   1.00
C3b      0.50420    0.07962    0.62974   1.00
C4       0.52663    0.03208    0.63077   1.00
O_3      0.40082    -0.09047   0.63750   1.00
C5       0.69979    0.12058    0.67470   1.00
H2       0.71331    0.09793    0.66171   1.00
C5       0.73121    0.11171    0.69421   1.00
H2       0.72072    0.17596    0.67170   1.00
H2       0.72521    0.05981    0.69416   1.00
H2       0.70029    0.11309    0.70715   1.00
C5       0.80684    0.16657    0.69682   1.00
H2       0.83592    0.16811    0.68307   1.00
H2       0.82937    0.15516    0.71023   1.00
H2       0.81285    0.21807    0.69949   1.00
C5       0.37800    -0.12081   0.67215   1.00
H2       0.32638    -0.16571   0.66958   1.00
H2       0.37183    -0.07500   0.67260   1.00
C5       0.40841    -0.12781   0.69228   1.00
H2       0.37117    -0.13985   0.70478   1.00
C5       0.38458    0.41777    0.53389   1.00
H2       0.33222    0.40835    0.53670   1.00
H2       0.38123    0.36725    0.53513   1.00
C5       0.40771    0.44744    0.51233   1.00
H2       0.38658    0.40613    0.50074   1.00
H2       0.46437    0.47530    0.51136   1.00
O_3      0.61462    0.53895    0.61426   1.00
C4       0.47546    0.49907    0.61656   1.00
C3c      0.44615    0.46430    0.59840   1.00
H1       0.44500    0.41694    0.59516   1.00
C3d      0.47556    0.56020    0.62063   1.00
C3       0.41887    0.49027    0.58406   1.00
O2       0.38370    0.44944    0.56786   1.00
C3       0.44961    0.58686    0.60622   1.00
H1       0.45299    0.63512    0.60968   1.00
C2       0.42046    0.55273    0.58767   1.00
C5       0.65740    0.60483    0.62220   1.00
H2       0.69225    0.60506    0.63419   1.00
H2       0.62687    0.62641    0.62883   1.00
C5       0.70035    0.65009    0.60485   1.00
H2       0.66553    0.64834    0.59263   1.00
H2       0.73107    0.62843    0.59848   1.00
C5       0.74683    0.72360    0.61205   1.00
H2       0.78141    0.72567    0.62435   1.00
H2       0.71613    0.74608    0.61776   1.00
H2       0.77890    0.75556    0.59926   1.00
C5       0.46277    0.57673    0.65411   1.00
C5       0.42818    0.46439    0.55117   1.00
H2       0.44569    0.52277    0.65803   1.00
H2       0.41693    0.58146    0.65089   1.00
H2       0.46978    0.45360    0.55512   1.00
H2       0.45277    0.51908    0.54643   1.00
H2       0.38859    0.48287    0.50827   1.00
H2       0.46444    0.54378    0.69635   1.00
H2       0.40905    0.57881    0.69139   1.00
C2       0.56609    0.42671    0.65969   1.00
C3       0.49546    0.40321    0.66049   1.00
O2       0.45838    0.37109    0.67765   1.00
C3       0.60477    0.47157    0.64383   1.00
H1       0.65860    0.48909    0.64249   1.00
C3a      0.46570    0.42610    0.64594   1.00
H1       0.41236    0.41072    0.64744   1.00
C3b      0.57545    0.49595    0.62978   1.00
C4       0.50544    0.47337    0.63077   1.00
O_3      0.50836    0.59899    0.63755   1.00
C5       0.42080    0.29991    0.67460   1.00
H2       0.38471    0.28641    0.66159   1.00
C5       0.38040    0.26830    0.69408   1.00
H2       0.45537    0.27912    0.67160   1.00
H2       0.33444    0.27419    0.69402   1.00
H2       0.41260    0.29918    0.70704   1.00
C5       0.35979    0.19270    0.69665   1.00
H2       0.33237    0.16368    0.68287   1.00
H2       0.32576    0.17002    0.71003   1.00
H2       0.40532    0.18678    0.69933   1.00
C5       0.50056    0.62154    0.67221   1.00
H2       0.50718    0.67313    0.66966   1.00
H2       0.55258    0.62781    0.67268   1.00
C5       0.46304    0.59093    0.69231   1.00
H2       0.48810    0.62810    0.70484   1.00
C5       0.29195    -0.31270   0.12668   1.00
H2       0.25310    -0.31487   0.11595   1.00
H2       0.27450    -0.30809   0.14204   1.00
C5       0.29522    -0.37918   0.12501   1.00
H2       0.25358    -0.42089   0.13397   1.00
H2       0.34523    -0.37046   0.13071   1.00
O_3      0.58937    -0.00051   0.13955   1.00
C4       0.47570    -0.02287   0.11632   1.00
C3c      0.42293    -0.08820   0.12166   1.00
H1       0.40325    -0.09791   0.13697   1.00
C3d      0.49994    -0.01104   0.09621   1.00
C3       0.39545    -0.14205   0.10752   1.00
O2       0.33852    -0.20208   0.11312   1.00
C3       0.47359    -0.06488   0.08220   1.00
H1       0.49546    -0.05397   0.06714   1.00
C2       0.42073    -0.13144   0.08740   1.00
C5       0.65106    0.03343    0.12856   1.00
H2       0.69005    0.08056    0.13639   1.00
H2       0.64257    0.04786    0.11310   1.00
C5       0.67865    -0.01519   0.12658   1.00
H2       0.63893    -0.06306   0.11927   1.00
H2       0.68753    -0.02875   0.14209   1.00
C5       0.74474    0.01693    0.11415   1.00
H2       0.78448    0.06501    0.12128   1.00
H2       0.73543    0.02830    0.09843   1.00
H2       0.76494    -0.01877   0.11324   1.00
C5       0.53224    0.09570    0.08452   1.00
C5       0.35818    -0.24742   0.12128   1.00
H2       0.50641    0.10616    0.09721   1.00
H2       0.49623    0.07480    0.07145   1.00
H2       0.38989    -0.22490   0.13515   1.00
H2       0.38894    -0.25891   0.11037   1.00
H2       0.28805    -0.39766   0.10898   1.00
H2       0.56884    0.23573    0.09177   1.00
H2       0.53363    0.20619    0.06660   1.00
C2       0.56658    0.14086    0.15920   1.00
C3       0.50742    0.12836    0.14850   1.00
O2       0.48821    0.17733    0.14776   1.00
C3       0.59251    0.09620    0.15611   1.00
H1       0.63667    0.10333    0.16446   1.00
C3a      0.47688    0.07335    0.13474   1.00
H1       0.43395    0.06680    0.12581   1.00
C3b      0.56331    0.04288    0.14194   1.00
C4       0.50513    0.03115    0.13108   1.00
O_3      0.55524    0.05087    0.09059   1.00
C5       0.43401    0.16078    0.16136   1.00
H2       0.38869    0.11034    0.15760   1.00
C5       0.41503    0.21660    0.15939   1.00
H2       0.44969    0.15913    0.17728   1.00
H2       0.38275    0.20603    0.14563   1.00
H2       0.46302    0.26558    0.15654   1.00
C5       0.37812    0.22241    0.17829   1.00
H2       0.33338    0.17177    0.18185   1.00
H2       0.36011    0.25939    0.17563   1.00
H2       0.41293    0.24150    0.19171   1.00
C5       0.59447    0.16243    0.07813   1.00
H2       0.61328    0.15423    0.06339   1.00
H2       0.63563    0.17540    0.08949   1.00
C5       0.57863    0.22094    0.07652   1.00
H2       0.62287    0.26672    0.06983   1.00
C5       1.06924    0.37194    0.04679   1.00
H2       1.07378    0.41132    0.03587   1.00
H2       1.01561    0.32965    0.04572   1.00
C5       1.11893    0.34678    0.04066   1.00
H2       1.09673    0.30804    0.02836   1.00
H2       1.13012    0.32384    0.05400   1.00
O_3      1.02030    0.41699    0.14859   1.00
C4       1.02302    0.49981    0.11636   1.00
C3c      1.01853    0.46379    0.09854   1.00
H1       0.97295    0.41564    0.09552   1.00
C3d      1.08247    0.56294    0.11986   1.00
C3       1.07275    0.48856    0.08455   1.00
O2       1.06148    0.45483    0.06634   1.00
C3       1.13705    0.58710    0.10615   1.00
H1       1.18255    0.63457    0.10984   1.00
C2       1.13366    0.55096    0.08817   1.00
C5       1.06545    0.45486    0.16442   1.00
H2       1.03916    0.44452    0.17938   1.00
H2       1.09055    0.51075    0.16139   1.00
C5       1.11966    0.43417    0.16564   1.00
H2       1.14464    0.44270    0.15052   1.00
H2       1.09410    0.37843    0.16886   1.00
C5       1.17250    0.47489    0.18207   1.00
H2       1.14784    0.46697    0.19718   1.00
H2       1.19973    0.53035    0.17850   1.00
H2       1.21084    0.45800    0.18304   1.00
C5       1.06343    0.64092    0.13604   1.00
C5       1.08242    0.40567    0.06770   1.00
H2       1.00759    0.61106    0.13317   1.00
H2       1.08802    0.67867    0.12352   1.00
H2       1.05200    0.36697    0.07951   1.00
H2       1.13745    0.42867    0.07188   1.00
H2       1.16778    0.38947    0.03457   1.00
H2       0.97656    0.67435    0.15959   1.00
H2       1.03850    0.74558    0.14444   1.00
C2       0.86310    0.42353    0.16058   1.00
C3       0.86150    0.46196    0.14394   1.00
O2       0.81937    0.48968    0.14426   1.00
C3       0.91654    0.40836    0.16162   1.00
H1       0.91824    0.37758    0.17388   1.00
C3a      0.91357    0.48560    0.12919   1.00
H1       0.91375    0.51820    0.11718   1.00
C3b      0.96941    0.43378    0.14728   1.00
C4       0.96833    0.47285    0.13092   1.00
O_3      1.09152    0.59785    0.13787   1.00
C5       0.76088    0.45013    0.13231   1.00
H2       0.77486    0.44757    0.11622   1.00
C5       0.71759    0.48468    0.13316   1.00
H2       0.73080    0.39720    0.13835   1.00
H2       0.73959    0.52849    0.12242   1.00
H2       0.72333    0.50660    0.14865   1.00
C5       0.64178    0.43554    0.12829   1.00
H2       0.63738    0.41009    0.11350   1.00
H2       0.61318    0.46363    0.12737   1.00
H2       0.61671    0.39611    0.14040   1.00
C5       1.07567    0.67909    0.15600   1.00
H2       1.13091    0.71763    0.15713   1.00
H2       1.06393    0.64217    0.16864   1.00
C5       1.03169    0.71315    0.15790   1.00
H2       1.04703    0.74621    0.17158   1.00
C5       0.61396    0.66666    0.04097   1.00
H2       0.56912    0.63139    0.03168   1.00
H2       0.65139    0.64889    0.03929   1.00
C5       0.64412    0.74019    0.03275   1.00
H2       0.67747    0.74846    0.01939   1.00
H2       0.67453    0.77766    0.04478   1.00
O_3      0.59870    0.60773    0.14496   1.00
C4       0.50011    0.52322    0.11638   1.00
C3c      0.53072    0.54579    0.09729   1.00
H1       0.57456    0.54125    0.09326   1.00
C3d      0.44244    0.52870    0.12122   1.00
C3       0.50612    0.57531    0.08326   1.00
O2       0.53335    0.58848    0.06402   1.00
C3       0.41862    0.55925    0.10744   1.00
H1       0.37574    0.56455    0.11211   1.00
C2       0.44943    0.58303    0.08815   1.00
C5       0.57037    0.62562    0.16128   1.00
H2       0.58360    0.61251    0.17627   1.00
H2       0.51366    0.59940    0.16007   1.00
C5       0.59914    0.70225    0.16044   1.00
H2       0.58759    0.71559    0.14525   1.00
H2       0.65570    0.72791    0.16185   1.00
C5       0.56898    0.72581    0.17731   1.00
H2       0.57991    0.71223    0.19251   1.00
H2       0.51278    0.70204    0.17550   1.00
H2       0.59173    0.78212    0.17672   1.00
C5       0.36433    0.44202    0.14096   1.00
C5       0.58797    0.65641    0.06285   1.00
H2       0.38779    0.40983    0.13808   1.00
H2       0.32306    0.42884    0.12959   1.00
H2       0.62927    0.66410    0.07360   1.00
H2       0.57211    0.69454    0.06677   1.00
H2       0.60301    0.75014    0.02743   1.00
H2       0.32746    0.32755    0.16763   1.00
H2       0.25463    0.32188    0.15424   1.00
C2       0.57715    0.44014    0.16055   1.00
C3       0.53044    0.39735    0.14568   1.00
O2       0.49634    0.32746    0.14808   1.00
C3       0.59996    0.51079    0.15979   1.00
H1       0.63704    0.54515    0.17062   1.00
C3a      0.50648    0.42539    0.13090   1.00
H1       0.46781    0.39141    0.12034   1.00
C3b      0.57439    0.53817    0.14547   1.00
C4       0.52717    0.49543    0.13089   1.00
O_3      0.41362    0.51202    0.14037   1.00
C5       0.52625    0.29839    0.13583   1.00
H2       0.52464    0.31006    0.11945   1.00
C5       0.48505    0.22115    0.13906   1.00
H2       0.58036    0.31763    0.14025   1.00
H2       0.43775    0.20022    0.12977   1.00
H2       0.46853    0.21215    0.15523   1.00
C5       0.52554    0.18506    0.13381   1.00
H2       0.54619    0.19896    0.11816   1.00
H2       0.49225    0.12867    0.13471   1.00
H2       0.56837    0.19915    0.14472   1.00
C5       0.33323    0.42637    0.16212   1.00
H2       0.29994    0.44932    0.16366   1.00
H2       0.37525    0.45236    0.17336   1.00
C5       0.29285    0.34921    0.16639   1.00
H2       0.26513    0.33942    0.18102   1.00
C5       0.35133    0.64599    0.70608   1.00
H2       0.34581    0.60317    0.71565   1.00
H2       0.35420    0.63135    0.69018   1.00
C5       0.28829    0.65472    0.70894   1.00
H2       0.24487    0.61737    0.69948   1.00
H2       0.30103    0.70728    0.70460   1.00
O_3      0.67514    0.93083    0.69684   1.00
C4       0.64374    0.80897    0.71700   1.00
C3c      0.57683    0.76121    0.71121   1.00
H1       0.56586    0.74549    0.69553   1.00
C3d      0.65714    0.82805    0.73756   1.00
C3       0.52308    0.73380    0.72539   1.00
O2       0.46084    0.68133    0.71912   1.00
C3       0.60349    0.80184    0.75164   1.00
H1       0.61581    0.81979    0.76710   1.00
C2       0.53540    0.75405    0.74600   1.00
C5       0.71294    0.98913    0.70905   1.00
H2       0.76131    1.02749    0.70162   1.00
H2       0.72592    0.97520    0.72396   1.00
C5       0.66905    1.02148    0.71265   1.00
H2       0.61991    0.98257    0.71955   1.00
H2       0.65694    1.03576    0.69768   1.00
C5       0.70550    1.08415    0.72645   1.00
H2       0.75484    1.12302    0.71971   1.00
H2       0.71549    1.06955    0.74164   1.00
H2       0.67327    1.10797    0.72854   1.00
C5       0.76168    0.84938    0.74838   1.00
C5       0.41939    0.70771    0.71233   1.00
H2       0.76937    0.82486    0.73481   1.00
H2       0.73856    0.81054    0.76069   1.00
H2       0.44368    0.74215    0.69907   1.00
H2       0.41116    0.73788    0.72430   1.00
H2       0.27002    0.64484    0.72501   1.00
H2       0.89835    0.87707    0.73991   1.00
H2       0.86706    0.83675    0.76444   1.00
C2       0.80784    0.89989    0.67424   1.00
C3       0.79067    0.83689    0.68336   1.00
O2       0.83563    0.81253    0.68272   1.00
C3       0.76758    0.92988    0.67883   1.00
H1       0.77830    0.97718    0.67169   1.00
C3a      0.73554    0.80650    0.69709   1.00
H1       0.72549    0.76028    0.70482   1.00
C3b      0.71417    0.90063    0.69297   1.00
C4       0.69783    0.83855    0.70227   1.00
O_3      0.72101    0.87866    0.74376   1.00
C5       0.81507    0.76115    0.66784   1.00
H2       0.76299    0.71754    0.67110   1.00
C5       0.86657    0.73613    0.66832   1.00
H2       0.81491    0.78157    0.65247   1.00
H2       0.85362    0.70008    0.68125   1.00
H2       0.91748    0.78096    0.67177   1.00
C5       0.86886    0.70207    0.64830   1.00
H2       0.81664    0.66094    0.64428   1.00
H2       0.90249    0.67952    0.64981   1.00
H2       0.89014    0.73992    0.63564   1.00
C5       0.83077    0.90658    0.75547   1.00
H2       0.82460    0.92309    0.77086   1.00
H2       0.84678    0.95101    0.74516   1.00
C5       0.88510    0.88467    0.75564   1.00
H2       0.93264    0.92493    0.76285   1.00
C5       0.42868    0.60258    0.72357   1.00
H2       0.40749    0.63745    0.72335   1.00
H2       0.44444    0.60087    0.70772   1.00
C5       0.49109    0.63157    0.73792   1.00
H2       0.53760    0.67161    0.73014   1.00
H2       0.50030    0.58998    0.74299   1.00
O_3      0.19951    0.25347    0.72043   1.00
C4       0.16540    0.35672    0.71685   1.00
C3c      0.22727    0.41752    0.71371   1.00
H1       0.25642    0.42377    0.70009   1.00
C3d      0.12772    0.34999    0.73456   1.00
C3       0.25295    0.47058    0.72811   1.00
O2       0.30935    0.53159    0.72288   1.00
C3       0.15379    0.40219    0.74911   1.00
H1       0.12427    0.39374    0.76278   1.00
C2       0.21663    0.46371    0.74628   1.00
C5       0.16102    0.20501    0.73549   1.00
H2       0.13432    0.15192    0.72944   1.00
H2       0.12202    0.21557    0.74221   1.00
C5       0.21005    0.20990    0.75201   1.00
H2       0.23813    0.26343    0.75766   1.00
H2       0.24836    0.19864    0.74516   1.00
C5       0.17192    0.16038    0.76942   1.00
H2       0.14338    0.10687    0.76386   1.00
H2       0.13534    0.17306    0.77672   1.00
H2       0.20874    0.16360    0.78113   1.00
C5       0.01242    0.28891    0.73014   1.00
C5       0.36919    0.53284    0.72968   1.00
H2       0.01695    0.29214    0.71333   1.00
H2       0.00631    0.33204    0.73575   1.00
H2       0.37417    0.49126    0.72225   1.00
H2       0.36925    0.52547    0.74646   1.00
H2       0.48331    0.65650    0.75149   1.00
H2       -0.10553   0.19600    0.70663   1.00
H2       -0.12155   0.25141    0.72285   1.00
C2       0.08844    0.19057    0.67474   1.00
C3       0.07364    0.24367    0.67202   1.00
O2       0.02166    0.23501    0.65924   1.00
C3       0.13164    0.19561    0.69096   1.00
H1       0.14537    0.15670    0.69314   1.00
C3a      0.10047    0.29902    0.68570   1.00
H1       0.08552    0.33727    0.68411   1.00
C3b      0.15646    0.24961    0.70492   1.00
C4       0.14085    0.30182    0.70239   1.00
O_3      0.06918    0.28924    0.73909   1.00
C5       0.04862    0.26871    0.64065   1.00
H2       0.08357    0.32452    0.64298   1.00
C5       -0.01183   0.25772    0.62753   1.00
H2       0.07724    0.24723    0.63276   1.00
H2       -0.02832   0.29422    0.63253   1.00
H2       -0.05495   0.20565    0.63088   1.00
C5       0.00465    0.26588    0.60466   1.00
H2       0.05105    0.31600    0.60182   1.00
H2       -0.03843   0.26323    0.59578   1.00
H2       0.01284    0.22410    0.59887   1.00
C5       -0.05070   0.22191    0.73584   1.00
H2       -0.06180   0.22389    0.75220   1.00
H2       -0.03859   0.18017    0.73408   1.00
C5       -0.11263   0.20735    0.72263   1.00
H2       -0.15918   0.16205    0.72856   1.00
C5       0.18374    0.57553    0.72159   1.00
H2       0.24004    0.59857    0.72190   1.00
H2       0.16838    0.56130    0.70553   1.00
C5       0.15064    0.51139    0.73526   1.00
H2       0.14686    0.46655    0.72712   1.00
H2       0.09866    0.49969    0.73993   1.00
O_3      0.05228    0.79522    0.71927   1.00
C4       0.19130    0.83462    0.71686   1.00
C3c      0.19315    0.77443    0.71328   1.00
H1       0.17256    0.74661    0.69931   1.00
C3d      0.21929    0.87063    0.73503   1.00
C3       0.22050    0.74869    0.72767   1.00
O2       0.22814    0.69433    0.72207   1.00
C3       0.24538    0.84444    0.74955   1.00
H1       0.26408    0.87254    0.76357   1.00
C2       0.24697    0.78325    0.74627   1.00
C5       0.03880    0.83066    0.73453   1.00
H2       0.01148    0.85644    0.72850   1.00
H2       0.08696    0.87003    0.74186   1.00
C5       -0.00603   0.77891    0.75039   1.00
H2       0.02044    0.75179    0.75601   1.00
H2       -0.05420   0.74023    0.74295   1.00
C5       -0.02121   0.81365    0.76798   1.00
H2       -0.04721   0.84123    0.76246   1.00
H2       0.02668    0.85057    0.77587   1.00
H2       -0.05525   0.77485    0.77920   1.00
C5       0.27028    0.98617    0.73179   1.00
C5       0.17013    0.63258    0.72805   1.00
H2       0.27104    0.98371    0.71495   1.00
H2       0.31960    0.99349    0.73777   1.00
H2       0.12370    0.62670    0.72028   1.00
H2       0.16066    0.63021    0.74477   1.00
H2       0.18213    0.51870    0.74910   1.00
H2       0.29356    1.10541    0.70931   1.00
H2       0.36389    1.12205    0.72610   1.00
C2       0.10193    0.91134    0.67473   1.00
C3       0.17085    0.92891    0.67258   1.00
O2       0.21431    0.98307    0.66046   1.00
C3       0.06299    0.86557    0.69038   1.00
H1       0.00964    0.84972    0.69210   1.00
C3a      0.19950    0.90218    0.68624   1.00
H1       0.25330    0.91917    0.68511   1.00
C3b      0.09220    0.84080    0.70434   1.00
C4       0.16098    0.85915    0.70238   1.00
O_3      0.21409    0.92726    0.73996   1.00
C5       0.22440    0.95920    0.64174   1.00
H2       0.24686    0.92558    0.64396   1.00
C5       0.27379    1.02194    0.62939   1.00
H2       0.17540    0.93010    0.63332   1.00
H2       0.32657    1.03963    0.63485   1.00
H2       0.26250    1.06336    0.63299   1.00
C5       0.26858    1.00822    0.60637   1.00
H2       0.27462    0.96332    0.60322   1.00
H2       0.30902    1.05309    0.59807   1.00
H2       0.21863    0.99886    0.60019   1.00
C5       0.26306    1.04708    0.73790   1.00
H2       0.27408    1.05651    0.75442   1.00
H2       0.20885    1.03325    0.73570   1.00
C5       0.31027    1.11119    0.72547   1.00
H2       0.30894    1.15606    0.73173   1.00
