data_IRMOF10_interpen_symm_ligand1lp_symm_c

_audit_creation_method             'generated by an auxiliary program of Tobunporous'

_symmetry_space_group_name_H-M     'P 1'
_symmetry_Int_Tables_number        1
_symmetry_cell_setting             triclinic

_cell_length_a                    22.6523
_cell_length_b                    22.6523
_cell_length_c                    65.9502
_cell_angle_alpha                 90.0000
_cell_angle_beta                  90.0000
_cell_angle_gamma                 120.0000

loop_
_atom_site_label
_atom_site_fract_x
_atom_site_fract_y
_atom_site_fract_z
_atom_site_occupancy
O1       0.00000    -0.00000   0.62500   1.00
Zn      0.00000    -0.00000   0.59589   1.00
Zn      0.94848    1.04288    0.63392   1.00
Zn      0.09439    0.05152    0.63392   1.00
Zn      -0.04288   0.90561    0.63392   1.00
O2       0.93860    0.02610    0.58587   1.00
O2       0.08750    0.06140    0.58587   1.00
O2       -0.02610   0.91250    0.58587   1.00
O2       0.91305    0.07161    0.61181   1.00
O2       0.00462    0.12022    0.65110   1.00
O2       0.87413    0.98074    0.65071   1.00
O2       0.15856    0.08695    0.61181   1.00
O2       0.10660    0.12587    0.65071   1.00
O2       0.11559    0.99538    0.65110   1.00
O2       -0.07161   0.84144    0.61181   1.00
O2       0.87978    0.88441    0.65110   1.00
O2       0.01926    0.89340    0.65071   1.00
C1       0.91390    0.06020    0.59358   1.00
C1       0.14630    0.08610    0.59358   1.00
C1       -0.06020   0.85370    0.59358   1.00
C1       0.06663    0.14397    0.65673   1.00
C1       0.85603    0.92267    0.65673   1.00
C1       0.07733    0.93337    0.65673   1.00
O1       -0.00000   0.00000    0.87500   1.00
Zn      -0.00000   0.00000    0.90411   1.00
Zn      1.04288    0.94848    0.86608   1.00
Zn      0.05152    0.09439    0.86608   1.00
Zn      0.90561    -0.04288   0.86608   1.00
O2       0.02610    0.93860    0.91413   1.00
O2       0.06140    0.08750    0.91413   1.00
O2       0.91250    -0.02610   0.91413   1.00
O2       0.07161    0.91305    0.88819   1.00
O2       0.12022    0.00462    0.84890   1.00
O2       0.98074    0.87413    0.84929   1.00
O2       0.08695    0.15856    0.88819   1.00
O2       0.12587    0.10660    0.84929   1.00
O2       0.99538    0.11559    0.84890   1.00
O2       0.84144    -0.07161   0.88819   1.00
O2       0.88441    0.87978    0.84890   1.00
O2       0.89340    0.01926    0.84929   1.00
C1       0.06020    0.91390    0.90642   1.00
C1       0.08610    0.14630    0.90642   1.00
C1       0.85370    -0.06020   0.90642   1.00
C1       0.14397    0.06663    0.84327   1.00
C1       0.92267    0.85603    0.84327   1.00
C1       0.93337    0.07733    0.84327   1.00
O1       0.00000    0.00000    0.37500   1.00
Zn      0.00000    0.00000    0.40411   1.00
Zn      0.05152    -0.04288   0.36608   1.00
Zn      0.90561    0.94848    0.36608   1.00
Zn      1.04288    0.09439    0.36608   1.00
O2       0.06140    -0.02610   0.41413   1.00
O2       0.91250    0.93860    0.41413   1.00
O2       0.02610    0.08750    0.41413   1.00
O2       0.08695    -0.07161   0.38819   1.00
O2       0.99538    0.87978    0.34890   1.00
O2       0.12587    0.01926    0.34929   1.00
O2       0.84144    0.91305    0.38819   1.00
O2       0.89340    0.87413    0.34929   1.00
O2       0.88441    0.00462    0.34890   1.00
O2       0.07161    0.15856    0.38819   1.00
O2       0.12022    0.11559    0.34890   1.00
O2       0.98074    0.10660    0.34929   1.00
C1       0.08610    -0.06020   0.40642   1.00
C1       0.85370    0.91390    0.40642   1.00
C1       0.06020    0.14630    0.40642   1.00
C1       0.93337    0.85603    0.34327   1.00
C1       0.14397    0.07733    0.34327   1.00
C1       0.92267    0.06663    0.34327   1.00
O1       0.00000    0.00000    0.12500   1.00
Zn      0.00000    0.00000    0.09589   1.00
Zn      -0.04288   0.05152    0.13392   1.00
Zn      0.94848    0.90561    0.13392   1.00
Zn      0.09439    1.04288    0.13392   1.00
O2       -0.02610   0.06140    0.08587   1.00
O2       0.93860    0.91250    0.08587   1.00
O2       0.08750    0.02610    0.08587   1.00
O2       -0.07161   0.08695    0.11181   1.00
O2       0.87978    0.99538    0.15110   1.00
O2       0.01926    0.12587    0.15071   1.00
O2       0.91305    0.84144    0.11181   1.00
O2       0.87413    0.89340    0.15071   1.00
O2       0.00462    0.88441    0.15110   1.00
O2       0.15856    0.07161    0.11181   1.00
O2       0.11559    0.12022    0.15110   1.00
O2       0.10660    0.98074    0.15071   1.00
C1       -0.06020   0.08610    0.09358   1.00
C1       0.91390    0.85370    0.09358   1.00
C1       0.14630    0.06020    0.09358   1.00
C1       0.85603    0.93337    0.15673   1.00
C1       0.07733    0.14397    0.15673   1.00
C1       0.06663    0.92267    0.15673   1.00
O1       0.66667    0.33333    0.95833   1.00
Zn      0.66667    0.33333    0.92922   1.00
Zn      0.61515    0.37621    0.96725   1.00
Zn      0.76106    0.38485    0.96725   1.00
Zn      -0.37621   0.23894    0.96725   1.00
O2       0.60527    0.35943    0.91920   1.00
O2       0.75417    0.39473    0.91920   1.00
O2       0.64057    0.24583    0.91920   1.00
O2       0.57972    0.40494    0.94514   1.00
O2       0.67129    0.45355    0.98443   1.00
O2       0.54080    0.31407    0.98404   1.00
O2       0.82523    0.42028    0.94514   1.00
O2       0.77327    0.45920    0.98404   1.00
O2       -0.21774   0.32871    0.98443   1.00
O2       0.59506    0.17477    0.94514   1.00
O2       0.54645    0.21774    0.98443   1.00
O2       -0.31407   0.22673    0.98404   1.00
C1       0.58057    0.39353    0.92691   1.00
C1       0.81297    0.41943    0.92691   1.00
C1       0.60647    0.18703    0.92691   1.00
C1       0.73330    0.47730    0.99006   1.00
C1       0.52270    0.25600    0.99006   1.00
C1       -0.25600   0.26670    0.99006   1.00
O1       0.66667    0.33333    0.20833   1.00
Zn      0.66667    0.33333    0.23744   1.00
Zn      0.70954    0.28182    0.19942   1.00
Zn      0.71818    0.42773    0.19942   1.00
Zn      0.57227    0.29046    0.19942   1.00
O2       0.69277    0.27193    0.24746   1.00
O2       0.72807    0.42083    0.24746   1.00
O2       0.57917    0.30723    0.24746   1.00
O2       0.73828    0.24638    0.22152   1.00
O2       0.78688    0.33796    0.18224   1.00
O2       0.64740    0.20747    0.18263   1.00
O2       0.75362    0.49189    0.22152   1.00
O2       0.79253    0.43994    0.18263   1.00
O2       0.66204    0.44893    0.18224   1.00
O2       0.50811    0.26172    0.22152   1.00
O2       0.55107    0.21312    0.18224   1.00
O2       0.56006    0.35260    0.18263   1.00
C1       0.72687    0.24723    0.23975   1.00
C1       0.75277    0.47963    0.23975   1.00
C1       0.52037    0.27313    0.23975   1.00
C1       0.81063    0.39997    0.17661   1.00
C1       0.58933    0.18937    0.17661   1.00
C1       0.60003    0.41067    0.17661   1.00
O1       0.66667    0.33333    0.70833   1.00
Zn      0.66667    0.33333    0.73744   1.00
Zn      0.71818    0.29046    0.69942   1.00
Zn      0.57227    0.28182    0.69942   1.00
Zn      0.70954    0.42773    0.69942   1.00
O2       0.72807    0.30723    0.74746   1.00
O2       0.57917    0.27193    0.74746   1.00
O2       0.69277    0.42083    0.74746   1.00
O2       0.75362    0.26172    0.72152   1.00
O2       0.66204    0.21312    0.68224   1.00
O2       0.79253    0.35260    0.68263   1.00
O2       0.50811    0.24638    0.72152   1.00
O2       0.56006    0.20747    0.68263   1.00
O2       0.55107    0.33796    0.68224   1.00
O2       0.73828    0.49189    0.72152   1.00
O2       0.78688    0.44893    0.68224   1.00
O2       0.64740    0.43994    0.68263   1.00
C1       0.75277    0.27313    0.73975   1.00
C1       0.52037    0.24723    0.73975   1.00
C1       0.72687    0.47963    0.73975   1.00
C1       0.60003    0.18937    0.67661   1.00
C1       0.81063    0.41067    0.67661   1.00
C1       0.58933    0.39997    0.67661   1.00
O1       0.66667    0.33333    0.45833   1.00
Zn      0.66667    0.33333    0.42922   1.00
Zn      -0.37621   0.38485    0.46725   1.00
Zn      0.61515    0.23894    0.46725   1.00
Zn      0.76106    0.37621    0.46725   1.00
O2       0.64057    0.39473    0.41920   1.00
O2       0.60527    0.24583    0.41920   1.00
O2       0.75417    0.35943    0.41920   1.00
O2       0.59506    0.42028    0.44514   1.00
O2       0.54645    0.32871    0.48443   1.00
O2       -0.31407   0.45920    0.48404   1.00
O2       0.57972    0.17477    0.44514   1.00
O2       0.54080    0.22673    0.48404   1.00
O2       0.67129    0.21774    0.48443   1.00
O2       0.82523    0.40494    0.44514   1.00
O2       -0.21774   0.45355    0.48443   1.00
O2       0.77327    0.31407    0.48404   1.00
C1       0.60647    0.41943    0.42691   1.00
C1       0.58057    0.18703    0.42691   1.00
C1       0.81297    0.39353    0.42691   1.00
C1       0.52270    0.26670    0.49006   1.00
C1       -0.25600   0.47730    0.49006   1.00
C1       0.73330    0.25600    0.49006   1.00
O1       0.33333    0.66667    0.29167   1.00
Zn      0.33333    0.66667    0.26256   1.00
Zn      0.28182    0.70954    0.30058   1.00
Zn      0.42773    0.71818    0.30058   1.00
Zn      0.29046    0.57227    0.30058   1.00
O2       0.27193    0.69277    0.25254   1.00
O2       0.42083    0.72807    0.25254   1.00
O2       0.30723    0.57917    0.25254   1.00
O2       0.24638    0.73828    0.27848   1.00
O2       0.33796    0.78688    0.31776   1.00
O2       0.20747    0.64740    0.31737   1.00
O2       0.49189    0.75362    0.27848   1.00
O2       0.43994    0.79253    0.31737   1.00
O2       0.44893    0.66204    0.31776   1.00
O2       0.26172    0.50811    0.27848   1.00
O2       0.21312    0.55107    0.31776   1.00
O2       0.35260    0.56006    0.31737   1.00
C1       0.24723    0.72687    0.26025   1.00
C1       0.47963    0.75277    0.26025   1.00
C1       0.27313    0.52037    0.26025   1.00
C1       0.39997    0.81063    0.32339   1.00
C1       0.18937    0.58933    0.32339   1.00
C1       0.41067    0.60003    0.32339   1.00
O1       0.33333    0.66667    0.54167   1.00
Zn      0.33333    0.66667    0.57078   1.00
Zn      0.37621    0.61515    0.53275   1.00
Zn      0.38485    0.76106    0.53275   1.00
Zn      0.23894    -0.37621   0.53275   1.00
O2       0.35943    0.60527    0.58080   1.00
O2       0.39473    0.75417    0.58080   1.00
O2       0.24583    0.64057    0.58080   1.00
O2       0.40494    0.57972    0.55486   1.00
O2       0.45355    0.67129    0.51557   1.00
O2       0.31407    0.54080    0.51596   1.00
O2       0.42028    0.82523    0.55486   1.00
O2       0.45920    0.77327    0.51596   1.00
O2       0.32871    -0.21774   0.51557   1.00
O2       0.17477    0.59506    0.55486   1.00
O2       0.21774    0.54645    0.51557   1.00
O2       0.22673    -0.31407   0.51596   1.00
C1       0.39353    0.58057    0.57309   1.00
C1       0.41943    0.81297    0.57309   1.00
C1       0.18703    0.60647    0.57309   1.00
C1       0.47730    0.73330    0.50994   1.00
C1       0.25600    0.52270    0.50994   1.00
C1       0.26670    -0.25600   0.50994   1.00
O1       0.33333    0.66667    0.04167   1.00
Zn      0.33333    0.66667    0.07078   1.00
Zn      0.38485    -0.37621   0.03275   1.00
Zn      0.23894    0.61515    0.03275   1.00
Zn      0.37621    0.76106    0.03275   1.00
O2       0.39473    0.64057    0.08080   1.00
O2       0.24583    0.60527    0.08080   1.00
O2       0.35943    0.75417    0.08080   1.00
O2       0.42028    0.59506    0.05486   1.00
O2       0.32871    0.54645    0.01557   1.00
O2       0.45920    -0.31407   0.01596   1.00
O2       0.17477    0.57972    0.05486   1.00
O2       0.22673    0.54080    0.01596   1.00
O2       0.21774    0.67129    0.01557   1.00
O2       0.40494    0.82523    0.05486   1.00
O2       0.45355    -0.21774   0.01557   1.00
O2       0.31407    0.77327    0.01596   1.00
C1       0.41943    0.60647    0.07309   1.00
C1       0.18703    0.58057    0.07309   1.00
C1       0.39353    0.81297    0.07309   1.00
C1       0.26670    0.52270    0.00994   1.00
C1       0.47730    -0.25600   0.00994   1.00
C1       0.25600    0.73330    0.00994   1.00
O1       0.33333    0.66667    0.79167   1.00
Zn      0.33333    0.66667    0.76256   1.00
Zn      0.29046    0.71818    0.80058   1.00
Zn      0.28182    0.57227    0.80058   1.00
Zn      0.42773    0.70954    0.80058   1.00
O2       0.30723    0.72807    0.75254   1.00
O2       0.27193    0.57917    0.75254   1.00
O2       0.42083    0.69277    0.75254   1.00
O2       0.26172    0.75362    0.77848   1.00
O2       0.21312    0.66204    0.81776   1.00
O2       0.35260    0.79253    0.81737   1.00
O2       0.24638    0.50811    0.77848   1.00
O2       0.20747    0.56006    0.81737   1.00
O2       0.33796    0.55107    0.81776   1.00
O2       0.49189    0.73828    0.77848   1.00
O2       0.44893    0.78688    0.81776   1.00
O2       0.43994    0.64740    0.81737   1.00
C1       0.27313    0.75277    0.76025   1.00
C1       0.24723    0.52037    0.76025   1.00
C1       0.47963    0.72687    0.76025   1.00
C1       0.18937    0.60003    0.82339   1.00
C1       0.41067    0.81063    0.82339   1.00
C1       0.39997    0.58933    0.82339   1.00
C2       -0.22804   0.51784    0.51123   1.00
C3       -0.25668   0.51637    0.52894   1.00
H1       -0.29642   0.47686    0.53265   1.00
C3       -0.16918   0.57533    0.50630   1.00
H1       -0.14774   0.57708    0.49411   1.00
C4       -0.22974   0.57095    0.54204   1.00
C5       -0.26232   0.56919    0.56236   1.00
H2       -0.24605   0.55021    0.57247   1.00
H2       -0.31093   0.54158    0.56126   1.00
H2       -0.25051   0.61463    0.56621   1.00
C4       -0.14015   0.63132    0.51900   1.00
C5       -0.07180   0.69623    0.51348   1.00
H2       -0.08103   0.72861    0.50696   1.00
H2       -0.04614   0.68421    0.50451   1.00
H2       -0.04609   0.71598    0.52559   1.00
C6       -0.16974   0.62918    0.53730   1.00
C6       -0.13841   0.68859    0.55116   1.00
C4       -0.09408   0.69260    0.56625   1.00
C5       -0.07114   0.64177    0.56706   1.00
H2       -0.10103   0.60467    0.57571   1.00
H2       -0.02574   0.66280    0.57235   1.00
H2       -0.07187   0.62497    0.55361   1.00
C4       -0.15619   0.73866    0.54873   1.00
C5       -0.20575   0.73631    0.53254   1.00
H2       -0.18108   0.75686    0.52023   1.00
H2       -0.22746   0.76085    0.53722   1.00
H2       -0.23948   0.68981    0.52992   1.00
C3       -0.06817   0.74724    0.57957   1.00
H1       -0.03746   0.75071    0.58955   1.00
C3       -0.12860   0.79283    0.56344   1.00
H1       -0.14018   0.82670    0.56256   1.00
C2       -0.08630   0.79640    0.57845   1.00
C2       0.48216    0.25412    0.51123   1.00
C3       0.48363    0.22695    0.52894   1.00
H1       0.52314    0.22672    0.53265   1.00
C3       0.42467    0.25549    0.50630   1.00
H1       0.42292    0.27518    0.49411   1.00
C4       0.42905    0.19931    0.54204   1.00
C5       0.43081    0.16849    0.56236   1.00
H2       0.44979    0.20374    0.57247   1.00
H2       0.45842    0.14749    0.56126   1.00
H2       0.38537    0.13486    0.56621   1.00
C4       0.36868    0.22853    0.51900   1.00
C5       0.30377    0.23197    0.51348   1.00
H2       0.27139    0.19036    0.50696   1.00
H2       0.31579    0.26965    0.50451   1.00
H2       0.28402    0.23793    0.52559   1.00
C6       0.37082    0.20108    0.53730   1.00
C6       0.31141    0.17300    0.55116   1.00
C4       0.30740    0.21332    0.56625   1.00
C5       0.35823    0.28709    0.56706   1.00
H2       0.39533    0.29430    0.57571   1.00
H2       0.33720    0.31146    0.57235   1.00
H2       0.37503    0.30316    0.55361   1.00
C4       0.26134    0.10515    0.54873   1.00
C5       0.26369    0.05794    0.53254   1.00
H2       0.24314    0.06206    0.52023   1.00
H2       0.23915    0.01169    0.53722   1.00
H2       0.31019    0.07071    0.52992   1.00
C3       0.25276    0.18459    0.57957   1.00
H1       0.24929    0.21183    0.58955   1.00
C3       0.20717    0.07857    0.56344   1.00
H1       0.17330    0.03312    0.56256   1.00
C2       0.20360    0.11730    0.57845   1.00
C2       0.74588    0.22804    0.51123   1.00
C3       0.77305    0.25668    0.52894   1.00
H1       0.77328    0.29642    0.53265   1.00
C3       0.74451    0.16918    0.50630   1.00
H1       0.72482    0.14774    0.49411   1.00
C4       0.80069    0.22974    0.54204   1.00
C5       0.83151    0.26232    0.56236   1.00
H2       0.79626    0.24605    0.57247   1.00
H2       0.85251    0.31093    0.56126   1.00
H2       0.86514    0.25051    0.56621   1.00
C4       0.77147    0.14015    0.51900   1.00
C5       0.76803    0.07180    0.51348   1.00
H2       0.80964    0.08103    0.50696   1.00
H2       0.73035    0.04614    0.50451   1.00
H2       0.76207    0.04609    0.52559   1.00
C6       0.79892    0.16974    0.53730   1.00
C6       0.82700    0.13841    0.55116   1.00
C4       0.78668    0.09408    0.56625   1.00
C5       0.71291    0.07114    0.56706   1.00
H2       0.70570    0.10103    0.57571   1.00
H2       0.68854    0.02574    0.57235   1.00
H2       0.69684    0.07187    0.55361   1.00
C4       0.89485    0.15619    0.54873   1.00
C5       0.94206    0.20575    0.53254   1.00
H2       0.93794    0.18108    0.52023   1.00
H2       0.98831    0.22746    0.53722   1.00
H2       0.92929    0.23948    0.52992   1.00
C3       0.81541    0.06817    0.57957   1.00
H1       0.78817    0.03746    0.58955   1.00
C3       0.92143    0.12860    0.56344   1.00
H1       0.96688    0.14018    0.56256   1.00
C2       0.88270    0.08630    0.57845   1.00
C2       0.51784    -0.22804   0.98877   1.00
C3       0.51637    -0.25668   0.97106   1.00
H1       0.47686    -0.29642   0.96735   1.00
C3       0.57533    -0.16918   0.99370   1.00
H1       0.57708    -0.14774   0.00589   1.00
C4       0.57095    -0.22974   0.95796   1.00
C5       0.56919    -0.26232   0.93764   1.00
H2       0.55021    -0.24605   0.92753   1.00
H2       0.54158    -0.31093   0.93874   1.00
H2       0.61463    -0.25051   0.93379   1.00
C4       0.63132    -0.14015   0.98100   1.00
C5       0.69623    -0.07180   0.98652   1.00
H2       0.72861    -0.08103   0.99304   1.00
H2       0.68421    -0.04614   0.99549   1.00
H2       0.71598    -0.04609   0.97441   1.00
C6       0.62918    -0.16974   0.96270   1.00
C6       0.68859    -0.13841   0.94884   1.00
C4       0.69260    -0.09408   0.93375   1.00
C5       0.64177    -0.07114   0.93294   1.00
H2       0.60467    -0.10103   0.92429   1.00
H2       0.66280    -0.02574   0.92765   1.00
H2       0.62497    -0.07187   0.94639   1.00
C4       0.73866    -0.15619   0.95127   1.00
C5       0.73631    -0.20575   0.96746   1.00
H2       0.75686    -0.18108   0.97977   1.00
H2       0.76085    -0.22746   0.96278   1.00
H2       0.68981    -0.23948   0.97008   1.00
C3       0.74724    -0.06817   0.92043   1.00
H1       0.75071    -0.03746   0.91045   1.00
C3       0.79283    -0.12860   0.93656   1.00
H1       0.82670    -0.14018   0.93744   1.00
C2       0.79640    -0.08630   0.92155   1.00
C2       0.25412    0.48216    0.98877   1.00
C3       0.22695    0.48363    0.97106   1.00
H1       0.22672    0.52314    0.96735   1.00
C3       0.25549    0.42467    0.99370   1.00
H1       0.27518    0.42292    0.00589   1.00
C4       0.19931    0.42905    0.95796   1.00
C5       0.16849    0.43081    0.93764   1.00
H2       0.20374    0.44979    0.92753   1.00
H2       0.14749    0.45842    0.93874   1.00
H2       0.13486    0.38537    0.93379   1.00
C4       0.22853    0.36868    0.98100   1.00
C5       0.23197    0.30377    0.98652   1.00
H2       0.19036    0.27139    0.99304   1.00
H2       0.26965    0.31579    0.99549   1.00
H2       0.23793    0.28402    0.97441   1.00
C6       0.20108    0.37082    0.96270   1.00
C6       0.17300    0.31141    0.94884   1.00
C4       0.21332    0.30740    0.93375   1.00
C5       0.28709    0.35823    0.93294   1.00
H2       0.29430    0.39533    0.92429   1.00
H2       0.31146    0.33720    0.92765   1.00
H2       0.30316    0.37503    0.94639   1.00
C4       0.10515    0.26134    0.95127   1.00
C5       0.05794    0.26369    0.96746   1.00
H2       0.06206    0.24314    0.97977   1.00
H2       0.01169    0.23915    0.96278   1.00
H2       0.07071    0.31019    0.97008   1.00
C3       0.18459    0.25276    0.92043   1.00
H1       0.21183    0.24929    0.91045   1.00
C3       0.07857    0.20717    0.93656   1.00
H1       0.03312    0.17330    0.93744   1.00
C2       0.11730    0.20360    0.92155   1.00
C2       0.22804    0.74588    0.98877   1.00
C3       0.25668    0.77305    0.97106   1.00
H1       0.29642    0.77328    0.96735   1.00
C3       0.16918    0.74451    0.99370   1.00
H1       0.14774    0.72482    0.00589   1.00
C4       0.22974    0.80069    0.95796   1.00
C5       0.26232    0.83151    0.93764   1.00
H2       0.24605    0.79626    0.92753   1.00
H2       0.31093    0.85251    0.93874   1.00
H2       0.25051    0.86514    0.93379   1.00
C4       0.14015    0.77147    0.98100   1.00
C5       0.07180    0.76803    0.98652   1.00
H2       0.08103    0.80964    0.99304   1.00
H2       0.04614    0.73035    0.99549   1.00
H2       0.04609    0.76207    0.97441   1.00
C6       0.16974    0.79892    0.96270   1.00
C6       0.13841    0.82700    0.94884   1.00
C4       0.09408    0.78668    0.93375   1.00
C5       0.07114    0.71291    0.93294   1.00
H2       0.10103    0.70570    0.92429   1.00
H2       0.02574    0.68854    0.92765   1.00
H2       0.07187    0.69684    0.94639   1.00
C4       0.15619    0.89485    0.95127   1.00
C5       0.20575    0.94206    0.96746   1.00
H2       0.18108    0.93794    0.97977   1.00
H2       0.22746    0.98831    0.96278   1.00
H2       0.23948    0.92929    0.97008   1.00
C3       0.06817    0.81541    0.92043   1.00
H1       0.03746    0.78817    0.91045   1.00
C3       0.12860    0.92143    0.93656   1.00
H1       0.14018    0.96688    0.93744   1.00
C2       0.08630    0.88270    0.92155   1.00
C2       0.22804    0.48216    0.48877   1.00
C3       0.25668    0.48363    0.47106   1.00
H1       0.29642    0.52314    0.46735   1.00
C3       0.16918    0.42467    0.49370   1.00
H1       0.14774    0.42292    0.50589   1.00
C4       0.22974    0.42905    0.45796   1.00
C5       0.26232    0.43081    0.43764   1.00
H2       0.24605    0.44979    0.42753   1.00
H2       0.31093    0.45842    0.43874   1.00
H2       0.25051    0.38537    0.43379   1.00
C4       0.14015    0.36868    0.48100   1.00
C5       0.07180    0.30377    0.48652   1.00
H2       0.08103    0.27139    0.49304   1.00
H2       0.04614    0.31579    0.49549   1.00
H2       0.04609    0.28402    0.47441   1.00
C6       0.16974    0.37082    0.46270   1.00
C6       0.13841    0.31141    0.44884   1.00
C4       0.09408    0.30740    0.43375   1.00
C5       0.07114    0.35823    0.43294   1.00
H2       0.10103    0.39533    0.42429   1.00
H2       0.02574    0.33720    0.42765   1.00
H2       0.07187    0.37503    0.44639   1.00
C4       0.15619    0.26134    0.45127   1.00
C5       0.20575    0.26369    0.46746   1.00
H2       0.18108    0.24314    0.47977   1.00
H2       0.22746    0.23915    0.46278   1.00
H2       0.23948    0.31019    0.47008   1.00
C3       0.06817    0.25276    0.42043   1.00
H1       0.03746    0.24929    0.41045   1.00
C3       0.12860    0.20717    0.43656   1.00
H1       0.14018    0.17330    0.43744   1.00
C2       0.08630    0.20360    0.42155   1.00
C2       0.51784    0.74588    0.48877   1.00
C3       0.51637    0.77305    0.47106   1.00
H1       0.47686    0.77328    0.46735   1.00
C3       0.57533    0.74451    0.49370   1.00
H1       0.57708    0.72482    0.50589   1.00
C4       0.57095    0.80069    0.45796   1.00
C5       0.56919    0.83151    0.43764   1.00
H2       0.55021    0.79626    0.42753   1.00
H2       0.54158    0.85251    0.43874   1.00
H2       0.61463    0.86514    0.43379   1.00
C4       0.63132    0.77147    0.48100   1.00
C5       0.69623    0.76803    0.48652   1.00
H2       0.72861    0.80964    0.49304   1.00
H2       0.68421    0.73035    0.49549   1.00
H2       0.71598    0.76207    0.47441   1.00
C6       0.62918    0.79892    0.46270   1.00
C6       0.68859    0.82700    0.44884   1.00
C4       0.69260    0.78668    0.43375   1.00
C5       0.64177    0.71291    0.43294   1.00
H2       0.60467    0.70570    0.42429   1.00
H2       0.66280    0.68854    0.42765   1.00
H2       0.62497    0.69684    0.44639   1.00
C4       0.73866    0.89485    0.45127   1.00
C5       0.73631    0.94206    0.46746   1.00
H2       0.75686    0.93794    0.47977   1.00
H2       0.76085    0.98831    0.46278   1.00
H2       0.68981    0.92929    0.47008   1.00
C3       0.74724    0.81541    0.42043   1.00
H1       0.75071    0.78817    0.41045   1.00
C3       0.79283    0.92143    0.43656   1.00
H1       0.82670    0.96688    0.43744   1.00
C2       0.79640    0.88270    0.42155   1.00
C2       0.25412    -0.22804   0.48877   1.00
C3       0.22695    -0.25668   0.47106   1.00
H1       0.22672    -0.29642   0.46735   1.00
C3       0.25549    -0.16918   0.49370   1.00
H1       0.27518    -0.14774   0.50589   1.00
C4       0.19931    -0.22974   0.45796   1.00
C5       0.16849    -0.26232   0.43764   1.00
H2       0.20374    -0.24605   0.42753   1.00
H2       0.14749    -0.31093   0.43874   1.00
H2       0.13486    -0.25051   0.43379   1.00
C4       0.22853    -0.14015   0.48100   1.00
C5       0.23197    -0.07180   0.48652   1.00
H2       0.19036    -0.08103   0.49304   1.00
H2       0.26965    -0.04614   0.49549   1.00
H2       0.23793    -0.04609   0.47441   1.00
C6       0.20108    -0.16974   0.46270   1.00
C6       0.17300    -0.13841   0.44884   1.00
C4       0.21332    -0.09408   0.43375   1.00
C5       0.28709    -0.07114   0.43294   1.00
H2       0.29430    -0.10103   0.42429   1.00
H2       0.31146    -0.02574   0.42765   1.00
H2       0.30316    -0.07187   0.44639   1.00
C4       0.10515    -0.15619   0.45127   1.00
C5       0.05794    -0.20575   0.46746   1.00
H2       0.06206    -0.18108   0.47977   1.00
H2       0.01169    -0.22746   0.46278   1.00
H2       0.07071    -0.23948   0.47008   1.00
C3       0.18459    -0.06817   0.42043   1.00
H1       0.21183    -0.03746   0.41045   1.00
C3       0.07857    -0.12860   0.43656   1.00
H1       0.03312    -0.14018   0.43744   1.00
C2       0.11730    -0.08630   0.42155   1.00
C2       0.48216    0.22804    0.01123   1.00
C3       0.48363    0.25668    0.02894   1.00
H1       0.52314    0.29642    0.03265   1.00
C3       0.42467    0.16918    0.00630   1.00
H1       0.42292    0.14774    0.99411   1.00
C4       0.42905    0.22974    0.04204   1.00
C5       0.43081    0.26232    0.06236   1.00
H2       0.44979    0.24605    0.07247   1.00
H2       0.45842    0.31093    0.06126   1.00
H2       0.38537    0.25051    0.06621   1.00
C4       0.36868    0.14015    0.01900   1.00
C5       0.30377    0.07180    0.01348   1.00
H2       0.27139    0.08103    0.00696   1.00
H2       0.31579    0.04614    0.00451   1.00
H2       0.28402    0.04609    0.02559   1.00
C6       0.37082    0.16974    0.03730   1.00
C6       0.31141    0.13841    0.05116   1.00
C4       0.30740    0.09408    0.06625   1.00
C5       0.35823    0.07114    0.06706   1.00
H2       0.39533    0.10103    0.07571   1.00
H2       0.33720    0.02574    0.07235   1.00
H2       0.37503    0.07187    0.05361   1.00
C4       0.26134    0.15619    0.04873   1.00
C5       0.26369    0.20575    0.03254   1.00
H2       0.24314    0.18108    0.02023   1.00
H2       0.23915    0.22746    0.03722   1.00
H2       0.31019    0.23948    0.02992   1.00
C3       0.25276    0.06817    0.07957   1.00
H1       0.24929    0.03746    0.08955   1.00
C3       0.20717    0.12860    0.06344   1.00
H1       0.17330    0.14018    0.06256   1.00
C2       0.20360    0.08630    0.07845   1.00
C2       0.74588    0.51784    0.01123   1.00
C3       0.77305    0.51637    0.02894   1.00
H1       0.77328    0.47686    0.03265   1.00
C3       0.74451    0.57533    0.00630   1.00
H1       0.72482    0.57708    0.99411   1.00
C4       0.80069    0.57095    0.04204   1.00
C5       0.83151    0.56919    0.06236   1.00
H2       0.79626    0.55021    0.07247   1.00
H2       0.85251    0.54158    0.06126   1.00
H2       0.86514    0.61463    0.06621   1.00
C4       0.77147    0.63132    0.01900   1.00
C5       0.76803    0.69623    0.01348   1.00
H2       0.80964    0.72861    0.00696   1.00
H2       0.73035    0.68421    0.00451   1.00
H2       0.76207    0.71598    0.02559   1.00
C6       0.79892    0.62918    0.03730   1.00
C6       0.82700    0.68859    0.05116   1.00
C4       0.78668    0.69260    0.06625   1.00
C5       0.71291    0.64177    0.06706   1.00
H2       0.70570    0.60467    0.07571   1.00
H2       0.68854    0.66280    0.07235   1.00
H2       0.69684    0.62497    0.05361   1.00
C4       0.89485    0.73866    0.04873   1.00
C5       0.94206    0.73631    0.03254   1.00
H2       0.93794    0.75686    0.02023   1.00
H2       0.98831    0.76085    0.03722   1.00
H2       0.92929    0.68981    0.02992   1.00
C3       0.81541    0.74724    0.07957   1.00
H1       0.78817    0.75071    0.08955   1.00
C3       0.92143    0.79283    0.06344   1.00
H1       0.96688    0.82670    0.06256   1.00
C2       0.88270    0.79640    0.07845   1.00
C2       -0.22804   0.25412    0.01123   1.00
C3       -0.25668   0.22695    0.02894   1.00
H1       -0.29642   0.22672    0.03265   1.00
C3       -0.16918   0.25549    0.00630   1.00
H1       -0.14774   0.27518    0.99411   1.00
C4       -0.22974   0.19931    0.04204   1.00
C5       -0.26232   0.16849    0.06236   1.00
H2       -0.24605   0.20374    0.07247   1.00
H2       -0.31093   0.14749    0.06126   1.00
H2       -0.25051   0.13486    0.06621   1.00
C4       -0.14015   0.22853    0.01900   1.00
C5       -0.07180   0.23197    0.01348   1.00
H2       -0.08103   0.19036    0.00696   1.00
H2       -0.04614   0.26965    0.00451   1.00
H2       -0.04609   0.23793    0.02559   1.00
C6       -0.16974   0.20108    0.03730   1.00
C6       -0.13841   0.17300    0.05116   1.00
C4       -0.09408   0.21332    0.06625   1.00
C5       -0.07114   0.28709    0.06706   1.00
H2       -0.10103   0.29430    0.07571   1.00
H2       -0.02574   0.31146    0.07235   1.00
H2       -0.07187   0.30316    0.05361   1.00
C4       -0.15619   0.10515    0.04873   1.00
C5       -0.20575   0.05794    0.03254   1.00
H2       -0.18108   0.06206    0.02023   1.00
H2       -0.22746   0.01169    0.03722   1.00
H2       -0.23948   0.07071    0.02992   1.00
C3       -0.06817   0.18459    0.07957   1.00
H1       -0.03746   0.21183    0.08955   1.00
C3       -0.12860   0.07857    0.06344   1.00
H1       -0.14018   0.03312    0.06256   1.00
C2       -0.08630   0.11730    0.07845   1.00
C2       0.43863    0.85117    0.84456   1.00
C3       0.40999    0.84970    0.86227   1.00
H1       0.37025    0.81019    0.86598   1.00
C3       0.49749    0.90866    0.83963   1.00
H1       0.51893    0.91041    0.82744   1.00
C4       0.43693    0.90428    0.87537   1.00
C5       0.40435    0.90252    0.89569   1.00
H2       0.42062    0.88354    0.90580   1.00
H2       0.35574    0.87491    0.89459   1.00
H2       0.41616    0.94796    0.89954   1.00
C4       0.52652    0.96465    0.85233   1.00
C5       0.59487    0.02956    0.84681   1.00
H2       0.58564    0.06194    0.84029   1.00
H2       0.62053    0.01754    0.83784   1.00
H2       0.62058    0.04931    0.85892   1.00
C6       0.49693    0.96251    0.87063   1.00
C6       0.52826    0.02192    0.88449   1.00
C4       0.57259    0.02593    0.89958   1.00
C5       0.59553    0.97510    0.90039   1.00
H2       0.56564    0.93800    0.90904   1.00
H2       0.64093    0.99613    0.90568   1.00
H2       0.59480    0.95830    0.88694   1.00
C4       0.51048    0.07199    0.88206   1.00
C5       0.46092    0.06964    0.86587   1.00
H2       0.48559    0.09019    0.85356   1.00
H2       0.43921    0.09418    0.87055   1.00
H2       0.42719    0.02314    0.86325   1.00
C3       0.59850    0.08057    0.91290   1.00
H1       0.62921    0.08404    0.92288   1.00
C3       0.53807    0.12616    0.89677   1.00
H1       0.52649    0.16003    0.89589   1.00
C2       0.58037    0.12973    0.91178   1.00
C2       0.14883    0.58745    0.84456   1.00
C3       0.15030    0.56028    0.86227   1.00
H1       0.18981    0.56005    0.86598   1.00
C3       0.09134    0.58882    0.83963   1.00
H1       0.08959    0.60851    0.82744   1.00
C4       0.09572    0.53264    0.87537   1.00
C5       0.09748    0.50182    0.89569   1.00
H2       0.11646    0.53707    0.90580   1.00
H2       0.12509    0.48082    0.89459   1.00
H2       0.05204    0.46819    0.89954   1.00
C4       0.03535    0.56186    0.85233   1.00
C5       0.97044    0.56530    0.84681   1.00
H2       0.93806    0.52369    0.84029   1.00
H2       0.98246    0.60298    0.83784   1.00
H2       0.95069    0.57126    0.85892   1.00
C6       0.03749    0.53441    0.87063   1.00
C6       0.97808    0.50633    0.88449   1.00
C4       0.97407    0.54665    0.89958   1.00
C5       0.02490    0.62042    0.90039   1.00
H2       0.06200    0.62763    0.90904   1.00
H2       0.00387    0.64479    0.90568   1.00
H2       0.04170    0.63649    0.88694   1.00
C4       0.92801    0.43848    0.88206   1.00
C5       0.93036    0.39127    0.86587   1.00
H2       0.90981    0.39539    0.85356   1.00
H2       0.90582    0.34502    0.87055   1.00
H2       0.97686    0.40404    0.86325   1.00
C3       0.91943    0.51792    0.91290   1.00
H1       0.91596    0.54516    0.92288   1.00
C3       0.87384    0.41190    0.89677   1.00
H1       0.83997    0.36645    0.89589   1.00
C2       0.87027    0.45063    0.91178   1.00
C2       0.41255    0.56137    0.84456   1.00
C3       0.43972    0.59001    0.86227   1.00
H1       0.43995    0.62975    0.86598   1.00
C3       0.41118    0.50251    0.83963   1.00
H1       0.39149    0.48107    0.82744   1.00
C4       0.46736    0.56307    0.87537   1.00
C5       0.49818    0.59565    0.89569   1.00
H2       0.46293    0.57938    0.90580   1.00
H2       0.51918    0.64426    0.89459   1.00
H2       0.53181    0.58384    0.89954   1.00
C4       0.43814    0.47348    0.85233   1.00
C5       0.43470    0.40513    0.84681   1.00
H2       0.47631    0.41436    0.84029   1.00
H2       0.39702    0.37947    0.83784   1.00
H2       0.42874    0.37942    0.85892   1.00
C6       0.46559    0.50307    0.87063   1.00
C6       0.49367    0.47174    0.88449   1.00
C4       0.45335    0.42741    0.89958   1.00
C5       0.37958    0.40447    0.90039   1.00
H2       0.37237    0.43436    0.90904   1.00
H2       0.35521    0.35907    0.90568   1.00
H2       0.36351    0.40520    0.88694   1.00
C4       0.56152    0.48952    0.88206   1.00
C5       0.60873    0.53908    0.86587   1.00
H2       0.60461    0.51441    0.85356   1.00
H2       0.65498    0.56079    0.87055   1.00
H2       0.59596    0.57281    0.86325   1.00
C3       0.48208    0.40150    0.91290   1.00
H1       0.45484    0.37079    0.92288   1.00
C3       0.58810    0.46193    0.89677   1.00
H1       0.63355    0.47351    0.89589   1.00
C2       0.54937    0.41963    0.91178   1.00
C2       0.18451    0.10529    0.32210   1.00
C3       0.18304    0.07665    0.30439   1.00
H1       0.14353    0.03691    0.30068   1.00
C3       0.24200    0.16415    0.32703   1.00
H1       0.24375    0.18559    0.33922   1.00
C4       0.23762    0.10359    0.29129   1.00
C5       0.23586    0.07101    0.27097   1.00
H2       0.21688    0.08728    0.26086   1.00
H2       0.20825    0.02240    0.27207   1.00
H2       0.28130    0.08282    0.26712   1.00
C4       0.29799    0.19318    0.31433   1.00
C5       0.36290    0.26153    0.31985   1.00
H2       0.39528    0.25230    0.32637   1.00
H2       0.35088    0.28719    0.32882   1.00
H2       0.38265    0.28724    0.30774   1.00
C6       0.29585    0.16359    0.29603   1.00
C6       0.35526    0.19492    0.28217   1.00
C4       0.35927    0.23925    0.26708   1.00
C5       0.30844    0.26219    0.26627   1.00
H2       0.27134    0.23230    0.25762   1.00
H2       0.32947    0.30759    0.26098   1.00
H2       0.29164    0.26146    0.27972   1.00
C4       0.40533    0.17714    0.28460   1.00
C5       0.40298    0.12758    0.30079   1.00
H2       0.42353    0.15225    0.31310   1.00
H2       0.42752    0.10587    0.29611   1.00
H2       0.35648    0.09385    0.30341   1.00
C3       0.41391    0.26516    0.25376   1.00
H1       0.41738    0.29587    0.24378   1.00
C3       0.45950    0.20473    0.26989   1.00
H1       0.49337    0.19315    0.27077   1.00
C2       0.46307    0.24703    0.25488   1.00
C2       0.92079    0.81549    0.32210   1.00
C3       0.89362    0.81696    0.30439   1.00
H1       0.89339    0.85647    0.30068   1.00
C3       0.92216    0.75800    0.32703   1.00
H1       0.94185    0.75625    0.33922   1.00
C4       0.86598    0.76238    0.29129   1.00
C5       0.83516    0.76414    0.27097   1.00
H2       0.87041    0.78312    0.26086   1.00
H2       0.81416    0.79175    0.27207   1.00
H2       0.80153    0.71870    0.26712   1.00
C4       0.89520    0.70201    0.31433   1.00
C5       0.89864    0.63710    0.31985   1.00
H2       0.85703    0.60472    0.32637   1.00
H2       0.93632    0.64912    0.32882   1.00
H2       0.90460    0.61735    0.30774   1.00
C6       0.86775    0.70415    0.29603   1.00
C6       0.83967    0.64474    0.28217   1.00
C4       0.87999    0.64073    0.26708   1.00
C5       0.95376    0.69156    0.26627   1.00
H2       0.96097    0.72866    0.25762   1.00
H2       0.97813    0.67053    0.26098   1.00
H2       0.96983    0.70836    0.27972   1.00
C4       0.77182    0.59467    0.28460   1.00
C5       0.72461    0.59702    0.30079   1.00
H2       0.72873    0.57647    0.31310   1.00
H2       0.67836    0.57248    0.29611   1.00
H2       0.73738    0.64352    0.30341   1.00
C3       0.85126    0.58609    0.25376   1.00
H1       0.87850    0.58262    0.24378   1.00
C3       0.74524    0.54050    0.26989   1.00
H1       0.69979    0.50663    0.27077   1.00
C2       0.78397    0.53693    0.25488   1.00
C2       0.89471    0.07921    0.32210   1.00
C3       0.92335    0.10638    0.30439   1.00
H1       0.96309    0.10661    0.30068   1.00
C3       0.83585    0.07784    0.32703   1.00
H1       0.81441    0.05815    0.33922   1.00
C4       0.89641    0.13402    0.29129   1.00
C5       0.92899    0.16484    0.27097   1.00
H2       0.91272    0.12959    0.26086   1.00
H2       0.97760    0.18584    0.27207   1.00
H2       0.91718    0.19847    0.26712   1.00
C4       0.80682    0.10480    0.31433   1.00
C5       0.73847    0.10136    0.31985   1.00
H2       0.74770    0.14297    0.32637   1.00
H2       0.71281    0.06368    0.32882   1.00
H2       0.71276    0.09540    0.30774   1.00
C6       0.83641    0.13225    0.29603   1.00
C6       0.80508    0.16033    0.28217   1.00
C4       0.76075    0.12001    0.26708   1.00
C5       0.73781    0.04624    0.26627   1.00
H2       0.76770    0.03903    0.25762   1.00
H2       0.69241    0.02187    0.26098   1.00
H2       0.73854    0.03017    0.27972   1.00
C4       0.82286    0.22818    0.28460   1.00
C5       0.87242    0.27539    0.30079   1.00
H2       0.84775    0.27127    0.31310   1.00
H2       0.89413    0.32164    0.29611   1.00
H2       0.90615    0.26262    0.30341   1.00
C3       0.73484    0.14874    0.25376   1.00
H1       0.70413    0.12150    0.24378   1.00
C3       0.79527    0.25476    0.26989   1.00
H1       0.80685    0.30021    0.27077   1.00
C2       0.75297    0.21603    0.25488   1.00
C2       0.89471    0.81549    0.82210   1.00
C3       0.92335    0.81696    0.80439   1.00
H1       0.96309    0.85647    0.80068   1.00
C3       0.83585    0.75800    0.82703   1.00
H1       0.81441    0.75625    0.83922   1.00
C4       0.89641    0.76238    0.79129   1.00
C5       0.92899    0.76414    0.77097   1.00
H2       0.91272    0.78312    0.76086   1.00
H2       0.97760    0.79175    0.77207   1.00
H2       0.91718    0.71870    0.76712   1.00
C4       0.80682    0.70201    0.81433   1.00
C5       0.73847    0.63710    0.81985   1.00
H2       0.74770    0.60472    0.82637   1.00
H2       0.71281    0.64912    0.82882   1.00
H2       0.71276    0.61735    0.80774   1.00
C6       0.83641    0.70415    0.79603   1.00
C6       0.80508    0.64474    0.78217   1.00
C4       0.76075    0.64073    0.76708   1.00
C5       0.73781    0.69156    0.76627   1.00
H2       0.76770    0.72866    0.75762   1.00
H2       0.69241    0.67053    0.76098   1.00
H2       0.73854    0.70836    0.77972   1.00
C4       0.82286    0.59467    0.78460   1.00
C5       0.87242    0.59702    0.80079   1.00
H2       0.84775    0.57647    0.81310   1.00
H2       0.89413    0.57248    0.79611   1.00
H2       0.90615    0.64352    0.80341   1.00
C3       0.73484    0.58609    0.75376   1.00
H1       0.70413    0.58262    0.74378   1.00
C3       0.79527    0.54050    0.76989   1.00
H1       0.80685    0.50663    0.77077   1.00
C2       0.75297    0.53693    0.75488   1.00
C2       0.18451    0.07921    0.82210   1.00
C3       0.18304    0.10638    0.80439   1.00
H1       0.14353    0.10661    0.80068   1.00
C3       0.24200    0.07784    0.82703   1.00
H1       0.24375    0.05815    0.83922   1.00
C4       0.23762    0.13402    0.79129   1.00
C5       0.23586    0.16484    0.77097   1.00
H2       0.21688    0.12959    0.76086   1.00
H2       0.20825    0.18584    0.77207   1.00
H2       0.28130    0.19847    0.76712   1.00
C4       0.29799    0.10480    0.81433   1.00
C5       0.36290    0.10136    0.81985   1.00
H2       0.39528    0.14297    0.82637   1.00
H2       0.35088    0.06368    0.82882   1.00
H2       0.38265    0.09540    0.80774   1.00
C6       0.29585    0.13225    0.79603   1.00
C6       0.35526    0.16033    0.78217   1.00
C4       0.35927    0.12001    0.76708   1.00
C5       0.30844    0.04624    0.76627   1.00
H2       0.27134    0.03903    0.75762   1.00
H2       0.32947    0.02187    0.76098   1.00
H2       0.29164    0.03017    0.77972   1.00
C4       0.40533    0.22818    0.78460   1.00
C5       0.40298    0.27539    0.80079   1.00
H2       0.42353    0.27127    0.81310   1.00
H2       0.42752    0.32164    0.79611   1.00
H2       0.35648    0.26262    0.80341   1.00
C3       0.41391    0.14874    0.75376   1.00
H1       0.41738    0.12150    0.74378   1.00
C3       0.45950    0.25476    0.76989   1.00
H1       0.49337    0.30021    0.77077   1.00
C2       0.46307    0.21603    0.75488   1.00
C2       0.92079    0.10529    0.82210   1.00
C3       0.89362    0.07665    0.80439   1.00
H1       0.89339    0.03691    0.80068   1.00
C3       0.92216    0.16415    0.82703   1.00
H1       0.94185    0.18559    0.83922   1.00
C4       0.86598    0.10359    0.79129   1.00
C5       0.83516    0.07101    0.77097   1.00
H2       0.87041    0.08728    0.76086   1.00
H2       0.81416    0.02240    0.77207   1.00
H2       0.80153    0.08282    0.76712   1.00
C4       0.89520    0.19318    0.81433   1.00
C5       0.89864    0.26153    0.81985   1.00
H2       0.85703    0.25230    0.82637   1.00
H2       0.93632    0.28719    0.82882   1.00
H2       0.90460    0.28724    0.80774   1.00
C6       0.86775    0.16359    0.79603   1.00
C6       0.83967    0.19492    0.78217   1.00
C4       0.87999    0.23925    0.76708   1.00
C5       0.95376    0.26219    0.76627   1.00
H2       0.96097    0.23230    0.75762   1.00
H2       0.97813    0.30759    0.76098   1.00
H2       0.96983    0.26146    0.77972   1.00
C4       0.77182    0.17714    0.78460   1.00
C5       0.72461    0.12758    0.80079   1.00
H2       0.72873    0.15225    0.81310   1.00
H2       0.67836    0.10587    0.79611   1.00
H2       0.73738    0.09385    0.80341   1.00
C3       0.85126    0.26516    0.75376   1.00
H1       0.87850    0.29587    0.74378   1.00
C3       0.74524    0.20473    0.76989   1.00
H1       0.69979    0.19315    0.77077   1.00
C2       0.78397    0.24703    0.75488   1.00
C2       0.14883    0.56137    0.34456   1.00
C3       0.15030    0.59001    0.36227   1.00
H1       0.18981    0.62975    0.36598   1.00
C3       0.09134    0.50251    0.33963   1.00
H1       0.08959    0.48107    0.32744   1.00
C4       0.09572    0.56307    0.37537   1.00
C5       0.09748    0.59565    0.39569   1.00
H2       0.11646    0.57938    0.40580   1.00
H2       0.12509    0.64426    0.39459   1.00
H2       0.05204    0.58384    0.39954   1.00
C4       0.03535    0.47348    0.35233   1.00
C5       0.97044    0.40513    0.34681   1.00
H2       0.93806    0.41436    0.34029   1.00
H2       0.98246    0.37947    0.33784   1.00
H2       0.95069    0.37942    0.35892   1.00
C6       0.03749    0.50307    0.37063   1.00
C6       0.97808    0.47174    0.38449   1.00
C4       0.97407    0.42741    0.39958   1.00
C5       0.02490    0.40447    0.40039   1.00
H2       0.06200    0.43436    0.40904   1.00
H2       0.00387    0.35907    0.40568   1.00
H2       0.04170    0.40520    0.38694   1.00
C4       0.92801    0.48952    0.38206   1.00
C5       0.93036    0.53908    0.36587   1.00
H2       0.90981    0.51441    0.35356   1.00
H2       0.90582    0.56079    0.37055   1.00
H2       0.97686    0.57281    0.36325   1.00
C3       0.91943    0.40150    0.41290   1.00
H1       0.91596    0.37079    0.42288   1.00
C3       0.87384    0.46193    0.39677   1.00
H1       0.83997    0.47351    0.39589   1.00
C2       0.87027    0.41963    0.41178   1.00
C2       0.41255    0.85117    0.34456   1.00
C3       0.43972    0.84970    0.36227   1.00
H1       0.43995    0.81019    0.36598   1.00
C3       0.41118    0.90866    0.33963   1.00
H1       0.39149    0.91041    0.32744   1.00
C4       0.46736    0.90428    0.37537   1.00
C5       0.49818    0.90252    0.39569   1.00
H2       0.46293    0.88354    0.40580   1.00
H2       0.51918    0.87491    0.39459   1.00
H2       0.53181    0.94796    0.39954   1.00
C4       0.43814    0.96465    0.35233   1.00
C5       0.43470    0.02956    0.34681   1.00
H2       0.47631    0.06194    0.34029   1.00
H2       0.39702    0.01754    0.33784   1.00
H2       0.42874    0.04931    0.35892   1.00
C6       0.46559    0.96251    0.37063   1.00
C6       0.49367    0.02192    0.38449   1.00
C4       0.45335    0.02593    0.39958   1.00
C5       0.37958    0.97510    0.40039   1.00
H2       0.37237    0.93800    0.40904   1.00
H2       0.35521    0.99613    0.40568   1.00
H2       0.36351    0.95830    0.38694   1.00
C4       0.56152    0.07199    0.38206   1.00
C5       0.60873    0.06964    0.36587   1.00
H2       0.60461    0.09019    0.35356   1.00
H2       0.65498    0.09418    0.37055   1.00
H2       0.59596    0.02314    0.36325   1.00
C3       0.48208    0.08057    0.41290   1.00
H1       0.45484    0.08404    0.42288   1.00
C3       0.58810    0.12616    0.39677   1.00
H1       0.63355    0.16003    0.39589   1.00
C2       0.54937    0.12973    0.41178   1.00
C2       0.43863    0.58745    0.34456   1.00
C3       0.40999    0.56028    0.36227   1.00
H1       0.37025    0.56005    0.36598   1.00
C3       0.49749    0.58882    0.33963   1.00
H1       0.51893    0.60851    0.32744   1.00
C4       0.43693    0.53264    0.37537   1.00
C5       0.40435    0.50182    0.39569   1.00
H2       0.42062    0.53707    0.40580   1.00
H2       0.35574    0.48082    0.39459   1.00
H2       0.41616    0.46819    0.39954   1.00
C4       0.52652    0.56186    0.35233   1.00
C5       0.59487    0.56530    0.34681   1.00
H2       0.58564    0.52369    0.34029   1.00
H2       0.62053    0.60298    0.33784   1.00
H2       0.62058    0.57126    0.35892   1.00
C6       0.49693    0.53441    0.37063   1.00
C6       0.52826    0.50633    0.38449   1.00
C4       0.57259    0.54665    0.39958   1.00
C5       0.59553    0.62042    0.40039   1.00
H2       0.56564    0.62763    0.40904   1.00
H2       0.64093    0.64479    0.40568   1.00
H2       0.59480    0.63649    0.38694   1.00
C4       0.51048    0.43848    0.38206   1.00
C5       0.46092    0.39127    0.36587   1.00
H2       0.48559    0.39539    0.35356   1.00
H2       0.43921    0.34502    0.37055   1.00
H2       0.42719    0.40404    0.36325   1.00
C3       0.59850    0.51792    0.41290   1.00
H1       0.62921    0.54516    0.42288   1.00
C3       0.53807    0.41190    0.39677   1.00
H1       0.52649    0.36645    0.39589   1.00
C2       0.58037    0.45063    0.41178   1.00
C2       0.10529    0.18451    0.17790   1.00
C3       0.07665    0.18304    0.19561   1.00
H1       0.03691    0.14353    0.19932   1.00
C3       0.16415    0.24200    0.17297   1.00
H1       0.18559    0.24375    0.16078   1.00
C4       0.10359    0.23762    0.20871   1.00
C5       0.07101    0.23586    0.22903   1.00
H2       0.08728    0.21688    0.23914   1.00
H2       0.02240    0.20825    0.22793   1.00
H2       0.08282    0.28130    0.23288   1.00
C4       0.19318    0.29799    0.18567   1.00
C5       0.26153    0.36290    0.18015   1.00
H2       0.25230    0.39528    0.17363   1.00
H2       0.28719    0.35088    0.17118   1.00
H2       0.28724    0.38265    0.19226   1.00
C6       0.16359    0.29585    0.20397   1.00
C6       0.19492    0.35526    0.21783   1.00
C4       0.23925    0.35927    0.23292   1.00
C5       0.26219    0.30844    0.23373   1.00
H2       0.23230    0.27134    0.24238   1.00
H2       0.30759    0.32947    0.23902   1.00
H2       0.26146    0.29164    0.22028   1.00
C4       0.17714    0.40533    0.21540   1.00
C5       0.12758    0.40298    0.19921   1.00
H2       0.15225    0.42353    0.18690   1.00
H2       0.10587    0.42752    0.20389   1.00
H2       0.09385    0.35648    0.19659   1.00
C3       0.26516    0.41391    0.24624   1.00
H1       0.29587    0.41738    0.25622   1.00
C3       0.20473    0.45950    0.23011   1.00
H1       0.19315    0.49337    0.22923   1.00
C2       0.24703    0.46307    0.24512   1.00
C2       0.81549    0.92079    0.17790   1.00
C3       0.81696    0.89362    0.19561   1.00
H1       0.85647    0.89339    0.19932   1.00
C3       0.75800    0.92216    0.17297   1.00
H1       0.75625    0.94185    0.16078   1.00
C4       0.76238    0.86598    0.20871   1.00
C5       0.76414    0.83516    0.22903   1.00
H2       0.78312    0.87041    0.23914   1.00
H2       0.79175    0.81416    0.22793   1.00
H2       0.71870    0.80153    0.23288   1.00
C4       0.70201    0.89520    0.18567   1.00
C5       0.63710    0.89864    0.18015   1.00
H2       0.60472    0.85703    0.17363   1.00
H2       0.64912    0.93632    0.17118   1.00
H2       0.61735    0.90460    0.19226   1.00
C6       0.70415    0.86775    0.20397   1.00
C6       0.64474    0.83967    0.21783   1.00
C4       0.64073    0.87999    0.23292   1.00
C5       0.69156    0.95376    0.23373   1.00
H2       0.72866    0.96097    0.24238   1.00
H2       0.67053    0.97813    0.23902   1.00
H2       0.70836    0.96983    0.22028   1.00
C4       0.59467    0.77182    0.21540   1.00
C5       0.59702    0.72461    0.19921   1.00
H2       0.57647    0.72873    0.18690   1.00
H2       0.57248    0.67836    0.20389   1.00
H2       0.64352    0.73738    0.19659   1.00
C3       0.58609    0.85126    0.24624   1.00
H1       0.58262    0.87850    0.25622   1.00
C3       0.54050    0.74524    0.23011   1.00
H1       0.50663    0.69979    0.22923   1.00
C2       0.53693    0.78397    0.24512   1.00
C2       0.07921    0.89471    0.17790   1.00
C3       0.10638    0.92335    0.19561   1.00
H1       0.10661    0.96309    0.19932   1.00
C3       0.07784    0.83585    0.17297   1.00
H1       0.05815    0.81441    0.16078   1.00
C4       0.13402    0.89641    0.20871   1.00
C5       0.16484    0.92899    0.22903   1.00
H2       0.12959    0.91272    0.23914   1.00
H2       0.18584    0.97760    0.22793   1.00
H2       0.19847    0.91718    0.23288   1.00
C4       0.10480    0.80682    0.18567   1.00
C5       0.10136    0.73847    0.18015   1.00
H2       0.14297    0.74770    0.17363   1.00
H2       0.06368    0.71281    0.17118   1.00
H2       0.09540    0.71276    0.19226   1.00
C6       0.13225    0.83641    0.20397   1.00
C6       0.16033    0.80508    0.21783   1.00
C4       0.12001    0.76075    0.23292   1.00
C5       0.04624    0.73781    0.23373   1.00
H2       0.03903    0.76770    0.24238   1.00
H2       0.02187    0.69241    0.23902   1.00
H2       0.03017    0.73854    0.22028   1.00
C4       0.22818    0.82286    0.21540   1.00
C5       0.27539    0.87242    0.19921   1.00
H2       0.27127    0.84775    0.18690   1.00
H2       0.32164    0.89413    0.20389   1.00
H2       0.26262    0.90615    0.19659   1.00
C3       0.14874    0.73484    0.24624   1.00
H1       0.12150    0.70413    0.25622   1.00
C3       0.25476    0.79527    0.23011   1.00
H1       0.30021    0.80685    0.22923   1.00
C2       0.21603    0.75297    0.24512   1.00
C2       0.85117    0.43863    0.65544   1.00
C3       0.84970    0.40999    0.63773   1.00
H1       0.81019    0.37025    0.63402   1.00
C3       0.90866    0.49749    0.66037   1.00
H1       0.91041    0.51893    0.67256   1.00
C4       0.90428    0.43693    0.62463   1.00
C5       0.90252    0.40435    0.60431   1.00
H2       0.88354    0.42062    0.59420   1.00
H2       0.87491    0.35574    0.60541   1.00
H2       0.94796    0.41616    0.60046   1.00
C4       0.96465    0.52652    0.64767   1.00
C5       0.02956    0.59487    0.65319   1.00
H2       0.06194    0.58564    0.65971   1.00
H2       0.01754    0.62053    0.66216   1.00
H2       0.04931    0.62058    0.64108   1.00
C6       0.96251    0.49693    0.62937   1.00
C6       0.02192    0.52826    0.61551   1.00
C4       0.02593    0.57259    0.60042   1.00
C5       0.97510    0.59553    0.59961   1.00
H2       0.93800    0.56564    0.59096   1.00
H2       0.99613    0.64093    0.59432   1.00
H2       0.95830    0.59480    0.61306   1.00
C4       0.07199    0.51048    0.61794   1.00
C5       0.06964    0.46092    0.63413   1.00
H2       0.09019    0.48559    0.64644   1.00
H2       0.09418    0.43921    0.62945   1.00
H2       0.02314    0.42719    0.63675   1.00
C3       0.08057    0.59850    0.58710   1.00
H1       0.08404    0.62921    0.57712   1.00
C3       0.12616    0.53807    0.60323   1.00
H1       0.16003    0.52649    0.60411   1.00
C2       0.12973    0.58037    0.58822   1.00
C2       0.58745    0.14883    0.65544   1.00
C3       0.56028    0.15030    0.63773   1.00
H1       0.56005    0.18981    0.63402   1.00
C3       0.58882    0.09134    0.66037   1.00
H1       0.60851    0.08959    0.67256   1.00
C4       0.53264    0.09572    0.62463   1.00
C5       0.50182    0.09748    0.60431   1.00
H2       0.53707    0.11646    0.59420   1.00
H2       0.48082    0.12509    0.60541   1.00
H2       0.46819    0.05204    0.60046   1.00
C4       0.56186    0.03535    0.64767   1.00
C5       0.56530    0.97044    0.65319   1.00
H2       0.52369    0.93806    0.65971   1.00
H2       0.60298    0.98246    0.66216   1.00
H2       0.57126    0.95069    0.64108   1.00
C6       0.53441    0.03749    0.62937   1.00
C6       0.50633    0.97808    0.61551   1.00
C4       0.54665    0.97407    0.60042   1.00
C5       0.62042    0.02490    0.59961   1.00
H2       0.62763    0.06200    0.59096   1.00
H2       0.64479    0.00387    0.59432   1.00
H2       0.63649    0.04170    0.61306   1.00
C4       0.43848    0.92801    0.61794   1.00
C5       0.39127    0.93036    0.63413   1.00
H2       0.39539    0.90981    0.64644   1.00
H2       0.34502    0.90582    0.62945   1.00
H2       0.40404    0.97686    0.63675   1.00
C3       0.51792    0.91943    0.58710   1.00
H1       0.54516    0.91596    0.57712   1.00
C3       0.41190    0.87384    0.60323   1.00
H1       0.36645    0.83997    0.60411   1.00
C2       0.45063    0.87027    0.58822   1.00
C2       0.56137    0.41255    0.65544   1.00
C3       0.59001    0.43972    0.63773   1.00
H1       0.62975    0.43995    0.63402   1.00
C3       0.50251    0.41118    0.66037   1.00
H1       0.48107    0.39149    0.67256   1.00
C4       0.56307    0.46736    0.62463   1.00
C5       0.59565    0.49818    0.60431   1.00
H2       0.57938    0.46293    0.59420   1.00
H2       0.64426    0.51918    0.60541   1.00
H2       0.58384    0.53181    0.60046   1.00
C4       0.47348    0.43814    0.64767   1.00
C5       0.40513    0.43470    0.65319   1.00
H2       0.41436    0.47631    0.65971   1.00
H2       0.37947    0.39702    0.66216   1.00
H2       0.37942    0.42874    0.64108   1.00
C6       0.50307    0.46559    0.62937   1.00
C6       0.47174    0.49367    0.61551   1.00
C4       0.42741    0.45335    0.60042   1.00
C5       0.40447    0.37958    0.59961   1.00
H2       0.43436    0.37237    0.59096   1.00
H2       0.35907    0.35521    0.59432   1.00
H2       0.40520    0.36351    0.61306   1.00
C4       0.48952    0.56152    0.61794   1.00
C5       0.53908    0.60873    0.63413   1.00
H2       0.51441    0.60461    0.64644   1.00
H2       0.56079    0.65498    0.62945   1.00
H2       0.57281    0.59596    0.63675   1.00
C3       0.40150    0.48208    0.58710   1.00
H1       0.37079    0.45484    0.57712   1.00
C3       0.46193    0.58810    0.60323   1.00
H1       0.47351    0.63355    0.60411   1.00
C2       0.41963    0.54937    0.58822   1.00
C2       0.56137    0.14883    0.15544   1.00
C3       0.59001    0.15030    0.13773   1.00
H1       0.62975    0.18981    0.13402   1.00
C3       0.50251    0.09134    0.16037   1.00
H1       0.48107    0.08959    0.17256   1.00
C4       0.56307    0.09572    0.12463   1.00
C5       0.59565    0.09748    0.10431   1.00
H2       0.57938    0.11646    0.09420   1.00
H2       0.64426    0.12509    0.10541   1.00
H2       0.58384    0.05204    0.10046   1.00
C4       0.47348    0.03535    0.14767   1.00
C5       0.40513    0.97044    0.15319   1.00
H2       0.41436    0.93806    0.15971   1.00
H2       0.37947    0.98246    0.16216   1.00
H2       0.37942    0.95069    0.14108   1.00
C6       0.50307    0.03749    0.12937   1.00
C6       0.47174    0.97808    0.11551   1.00
C4       0.42741    0.97407    0.10042   1.00
C5       0.40447    0.02490    0.09961   1.00
H2       0.43436    0.06200    0.09096   1.00
H2       0.35907    0.00387    0.09432   1.00
H2       0.40520    0.04170    0.11306   1.00
C4       0.48952    0.92801    0.11794   1.00
C5       0.53908    0.93036    0.13413   1.00
H2       0.51441    0.90981    0.14644   1.00
H2       0.56079    0.90582    0.12945   1.00
H2       0.57281    0.97686    0.13675   1.00
C3       0.40150    0.91943    0.08710   1.00
H1       0.37079    0.91596    0.07712   1.00
C3       0.46193    0.87384    0.10323   1.00
H1       0.47351    0.83997    0.10411   1.00
C2       0.41963    0.87027    0.08822   1.00
C2       0.85117    0.41255    0.15544   1.00
C3       0.84970    0.43972    0.13773   1.00
H1       0.81019    0.43995    0.13402   1.00
C3       0.90866    0.41118    0.16037   1.00
H1       0.91041    0.39149    0.17256   1.00
C4       0.90428    0.46736    0.12463   1.00
C5       0.90252    0.49818    0.10431   1.00
H2       0.88354    0.46293    0.09420   1.00
H2       0.87491    0.51918    0.10541   1.00
H2       0.94796    0.53181    0.10046   1.00
C4       0.96465    0.43814    0.14767   1.00
C5       0.02956    0.43470    0.15319   1.00
H2       0.06194    0.47631    0.15971   1.00
H2       0.01754    0.39702    0.16216   1.00
H2       0.04931    0.42874    0.14108   1.00
C6       0.96251    0.46559    0.12937   1.00
C6       0.02192    0.49367    0.11551   1.00
C4       0.02593    0.45335    0.10042   1.00
C5       0.97510    0.37958    0.09961   1.00
H2       0.93800    0.37237    0.09096   1.00
H2       0.99613    0.35521    0.09432   1.00
H2       0.95830    0.36351    0.11306   1.00
C4       0.07199    0.56152    0.11794   1.00
C5       0.06964    0.60873    0.13413   1.00
H2       0.09019    0.60461    0.14644   1.00
H2       0.09418    0.65498    0.12945   1.00
H2       0.02314    0.59596    0.13675   1.00
C3       0.08057    0.48208    0.08710   1.00
H1       0.08404    0.45484    0.07712   1.00
C3       0.12616    0.58810    0.10323   1.00
H1       0.16003    0.63355    0.10411   1.00
C2       0.12973    0.54937    0.08822   1.00
C2       0.58745    0.43863    0.15544   1.00
C3       0.56028    0.40999    0.13773   1.00
H1       0.56005    0.37025    0.13402   1.00
C3       0.58882    0.49749    0.16037   1.00
H1       0.60851    0.51893    0.17256   1.00
C4       0.53264    0.43693    0.12463   1.00
C5       0.50182    0.40435    0.10431   1.00
H2       0.53707    0.42062    0.09420   1.00
H2       0.48082    0.35574    0.10541   1.00
H2       0.46819    0.41616    0.10046   1.00
C4       0.56186    0.52652    0.14767   1.00
C5       0.56530    0.59487    0.15319   1.00
H2       0.52369    0.58564    0.15971   1.00
H2       0.60298    0.62053    0.16216   1.00
H2       0.57126    0.62058    0.14108   1.00
C6       0.53441    0.49693    0.12937   1.00
C6       0.50633    0.52826    0.11551   1.00
C4       0.54665    0.57259    0.10042   1.00
C5       0.62042    0.59553    0.09961   1.00
H2       0.62763    0.56564    0.09096   1.00
H2       0.64479    0.64093    0.09432   1.00
H2       0.63649    0.59480    0.11306   1.00
C4       0.43848    0.51048    0.11794   1.00
C5       0.39127    0.46092    0.13413   1.00
H2       0.39539    0.48559    0.14644   1.00
H2       0.34502    0.43921    0.12945   1.00
H2       0.40404    0.42719    0.13675   1.00
C3       0.51792    0.59850    0.08710   1.00
H1       0.54516    0.62921    0.07712   1.00
C3       0.41190    0.53807    0.10323   1.00
H1       0.36645    0.52649    0.10411   1.00
C2       0.45063    0.58037    0.08822   1.00
C2       0.81549    0.89471    0.67790   1.00
C3       0.81696    0.92335    0.69561   1.00
H1       0.85647    0.96309    0.69932   1.00
C3       0.75800    0.83585    0.67297   1.00
H1       0.75625    0.81441    0.66078   1.00
C4       0.76238    0.89641    0.70871   1.00
C5       0.76414    0.92899    0.72903   1.00
H2       0.78312    0.91272    0.73914   1.00
H2       0.79175    0.97760    0.72793   1.00
H2       0.71870    0.91718    0.73288   1.00
C4       0.70201    0.80682    0.68567   1.00
C5       0.63710    0.73847    0.68015   1.00
H2       0.60472    0.74770    0.67363   1.00
H2       0.64912    0.71281    0.67118   1.00
H2       0.61735    0.71276    0.69226   1.00
C6       0.70415    0.83641    0.70397   1.00
C6       0.64474    0.80508    0.71783   1.00
C4       0.64073    0.76075    0.73292   1.00
C5       0.69156    0.73781    0.73373   1.00
H2       0.72866    0.76770    0.74238   1.00
H2       0.67053    0.69241    0.73902   1.00
H2       0.70836    0.73854    0.72028   1.00
C4       0.59467    0.82286    0.71540   1.00
C5       0.59702    0.87242    0.69921   1.00
H2       0.57647    0.84775    0.68690   1.00
H2       0.57248    0.89413    0.70389   1.00
H2       0.64352    0.90615    0.69659   1.00
C3       0.58609    0.73484    0.74624   1.00
H1       0.58262    0.70413    0.75622   1.00
C3       0.54050    0.79527    0.73011   1.00
H1       0.50663    0.80685    0.72923   1.00
C2       0.53693    0.75297    0.74512   1.00
C2       0.07921    0.18451    0.67790   1.00
C3       0.10638    0.18304    0.69561   1.00
H1       0.10661    0.14353    0.69932   1.00
C3       0.07784    0.24200    0.67297   1.00
H1       0.05815    0.24375    0.66078   1.00
C4       0.13402    0.23762    0.70871   1.00
C5       0.16484    0.23586    0.72903   1.00
H2       0.12959    0.21688    0.73914   1.00
H2       0.18584    0.20825    0.72793   1.00
H2       0.19847    0.28130    0.73288   1.00
C4       0.10480    0.29799    0.68567   1.00
C5       0.10136    0.36290    0.68015   1.00
H2       0.14297    0.39528    0.67363   1.00
H2       0.06368    0.35088    0.67118   1.00
H2       0.09540    0.38265    0.69226   1.00
C6       0.13225    0.29585    0.70397   1.00
C6       0.16033    0.35526    0.71783   1.00
C4       0.12001    0.35927    0.73292   1.00
C5       0.04624    0.30844    0.73373   1.00
H2       0.03903    0.27134    0.74238   1.00
H2       0.02187    0.32947    0.73902   1.00
H2       0.03017    0.29164    0.72028   1.00
C4       0.22818    0.40533    0.71540   1.00
C5       0.27539    0.40298    0.69921   1.00
H2       0.27127    0.42353    0.68690   1.00
H2       0.32164    0.42752    0.70389   1.00
H2       0.26262    0.35648    0.69659   1.00
C3       0.14874    0.41391    0.74624   1.00
H1       0.12150    0.41738    0.75622   1.00
C3       0.25476    0.45950    0.73011   1.00
H1       0.30021    0.49337    0.72923   1.00
C2       0.21603    0.46307    0.74512   1.00
C2       0.10529    0.92079    0.67790   1.00
C3       0.07665    0.89362    0.69561   1.00
H1       0.03691    0.89339    0.69932   1.00
C3       0.16415    0.92216    0.67297   1.00
H1       0.18559    0.94185    0.66078   1.00
C4       0.10359    0.86598    0.70871   1.00
C5       0.07101    0.83516    0.72903   1.00
H2       0.08728    0.87041    0.73914   1.00
H2       0.02240    0.81416    0.72793   1.00
H2       0.08282    0.80153    0.73288   1.00
C4       0.19318    0.89520    0.68567   1.00
C5       0.26153    0.89864    0.68015   1.00
H2       0.25230    0.85703    0.67363   1.00
H2       0.28719    0.93632    0.67118   1.00
H2       0.28724    0.90460    0.69226   1.00
C6       0.16359    0.86775    0.70397   1.00
C6       0.19492    0.83967    0.71783   1.00
C4       0.23925    0.87999    0.73292   1.00
C5       0.26219    0.95376    0.73373   1.00
H2       0.23230    0.96097    0.74238   1.00
H2       0.30759    0.97813    0.73902   1.00
H2       0.26146    0.96983    0.72028   1.00
C4       0.17714    0.77182    0.71540   1.00
C5       0.12758    0.72461    0.69921   1.00
H2       0.15225    0.72873    0.68690   1.00
H2       0.10587    0.67836    0.70389   1.00
H2       0.09385    0.73738    0.69659   1.00
C3       0.26516    0.85126    0.74624   1.00
H1       0.29587    0.87850    0.75622   1.00
C3       0.20473    0.74524    0.73011   1.00
H1       0.19315    0.69979    0.72923   1.00
C2       0.24703    0.78397    0.74512   1.00
