data_IRMOF10_interpen_symm_ligand2lp_label_m.

_audit_creation_method             'generated by an auxiliary program of Tobunporous'

_symmetry_space_group_name_H-M     'P 1'
_symmetry_Int_Tables_number        1
_symmetry_cell_setting             triclinic

_cell_length_a                    22.6523
_cell_length_b                    22.6523
_cell_length_c                    65.9502
_cell_angle_alpha                 90.0000
_cell_angle_beta                  90.0000
_cell_angle_gamma                 120.0000

loop_
_atom_site_label
_atom_site_fract_x
_atom_site_fract_y
_atom_site_fract_z
_atom_site_occupancy
O1       0.00000    -0.00000   0.62500   1.00
Zn      0.00000    -0.00000   0.59589   1.00
Zn      0.94848    1.04288    0.63392   1.00
Zn      0.09439    0.05152    0.63392   1.00
Zn      -0.04288   0.90561    0.63392   1.00
O2       0.93860    0.02610    0.58587   1.00
O2       0.08750    0.06140    0.58587   1.00
O2       -0.02610   0.91250    0.58587   1.00
O2       0.91305    0.07161    0.61181   1.00
O2       0.00462    0.12022    0.65110   1.00
O2       0.87413    0.98074    0.65071   1.00
O2       0.15856    0.08695    0.61181   1.00
O2       0.10660    0.12587    0.65071   1.00
O2       0.11559    0.99538    0.65110   1.00
O2       -0.07161   0.84144    0.61181   1.00
O2       0.87978    0.88441    0.65110   1.00
O2       0.01926    0.89340    0.65071   1.00
C1       0.91390    0.06020    0.59358   1.00
C1       0.14630    0.08610    0.59358   1.00
C1       -0.06020   0.85370    0.59358   1.00
C1       0.06663    0.14397    0.65673   1.00
C1       0.85603    0.92267    0.65673   1.00
C1       0.07733    0.93337    0.65673   1.00
O1       -0.00000   0.00000    0.87500   1.00
Zn      -0.00000   0.00000    0.90411   1.00
Zn      1.04288    0.94848    0.86608   1.00
Zn      0.05152    0.09439    0.86608   1.00
Zn      0.90561    -0.04288   0.86608   1.00
O2       0.02610    0.93860    0.91413   1.00
O2       0.06140    0.08750    0.91413   1.00
O2       0.91250    -0.02610   0.91413   1.00
O2       0.07161    0.91305    0.88819   1.00
O2       0.12022    0.00462    0.84890   1.00
O2       0.98074    0.87413    0.84929   1.00
O2       0.08695    0.15856    0.88819   1.00
O2       0.12587    0.10660    0.84929   1.00
O2       0.99538    0.11559    0.84890   1.00
O2       0.84144    -0.07161   0.88819   1.00
O2       0.88441    0.87978    0.84890   1.00
O2       0.89340    0.01926    0.84929   1.00
C1       0.06020    0.91390    0.90642   1.00
C1       0.08610    0.14630    0.90642   1.00
C1       0.85370    -0.06020   0.90642   1.00
C1       0.14397    0.06663    0.84327   1.00
C1       0.92267    0.85603    0.84327   1.00
C1       0.93337    0.07733    0.84327   1.00
O1       0.00000    0.00000    0.37500   1.00
Zn      0.00000    0.00000    0.40411   1.00
Zn      0.05152    -0.04288   0.36608   1.00
Zn      0.90561    0.94848    0.36608   1.00
Zn      1.04288    0.09439    0.36608   1.00
O2       0.06140    -0.02610   0.41413   1.00
O2       0.91250    0.93860    0.41413   1.00
O2       0.02610    0.08750    0.41413   1.00
O2       0.08695    -0.07161   0.38819   1.00
O2       0.99538    0.87978    0.34890   1.00
O2       0.12587    0.01926    0.34929   1.00
O2       0.84144    0.91305    0.38819   1.00
O2       0.89340    0.87413    0.34929   1.00
O2       0.88441    0.00462    0.34890   1.00
O2       0.07161    0.15856    0.38819   1.00
O2       0.12022    0.11559    0.34890   1.00
O2       0.98074    0.10660    0.34929   1.00
C1       0.08610    -0.06020   0.40642   1.00
C1       0.85370    0.91390    0.40642   1.00
C1       0.06020    0.14630    0.40642   1.00
C1       0.93337    0.85603    0.34327   1.00
C1       0.14397    0.07733    0.34327   1.00
C1       0.92267    0.06663    0.34327   1.00
O1       0.00000    0.00000    0.12500   1.00
Zn      0.00000    0.00000    0.09589   1.00
Zn      -0.04288   0.05152    0.13392   1.00
Zn      0.94848    0.90561    0.13392   1.00
Zn      0.09439    1.04288    0.13392   1.00
O2       -0.02610   0.06140    0.08587   1.00
O2       0.93860    0.91250    0.08587   1.00
O2       0.08750    0.02610    0.08587   1.00
O2       -0.07161   0.08695    0.11181   1.00
O2       0.87978    0.99538    0.15110   1.00
O2       0.01926    0.12587    0.15071   1.00
O2       0.91305    0.84144    0.11181   1.00
O2       0.87413    0.89340    0.15071   1.00
O2       0.00462    0.88441    0.15110   1.00
O2       0.15856    0.07161    0.11181   1.00
O2       0.11559    0.12022    0.15110   1.00
O2       0.10660    0.98074    0.15071   1.00
C1       -0.06020   0.08610    0.09358   1.00
C1       0.91390    0.85370    0.09358   1.00
C1       0.14630    0.06020    0.09358   1.00
C1       0.85603    0.93337    0.15673   1.00
C1       0.07733    0.14397    0.15673   1.00
C1       0.06663    0.92267    0.15673   1.00
O1       0.66667    0.33333    0.95833   1.00
Zn      0.66667    0.33333    0.92922   1.00
Zn      0.61515    0.37621    0.96725   1.00
Zn      0.76106    0.38485    0.96725   1.00
Zn      -0.37621   0.23894    0.96725   1.00
O2       0.60527    0.35943    0.91920   1.00
O2       0.75417    0.39473    0.91920   1.00
O2       0.64057    0.24583    0.91920   1.00
O2       0.57972    0.40494    0.94514   1.00
O2       0.67129    0.45355    0.98443   1.00
O2       0.54080    0.31407    0.98404   1.00
O2       0.82523    0.42028    0.94514   1.00
O2       0.77327    0.45920    0.98404   1.00
O2       -0.21774   0.32871    0.98443   1.00
O2       0.59506    0.17477    0.94514   1.00
O2       0.54645    0.21774    0.98443   1.00
O2       -0.31407   0.22673    0.98404   1.00
C1       0.58057    0.39353    0.92691   1.00
C1       0.81297    0.41943    0.92691   1.00
C1       0.60647    0.18703    0.92691   1.00
C1       0.73330    0.47730    0.99006   1.00
C1       0.52270    0.25600    0.99006   1.00
C1       -0.25600   0.26670    0.99006   1.00
O1       0.66667    0.33333    0.20833   1.00
Zn      0.66667    0.33333    0.23744   1.00
Zn      0.70954    0.28182    0.19942   1.00
Zn      0.71818    0.42773    0.19942   1.00
Zn      0.57227    0.29046    0.19942   1.00
O2       0.69277    0.27193    0.24746   1.00
O2       0.72807    0.42083    0.24746   1.00
O2       0.57917    0.30723    0.24746   1.00
O2       0.73828    0.24638    0.22152   1.00
O2       0.78688    0.33796    0.18224   1.00
O2       0.64740    0.20747    0.18263   1.00
O2       0.75362    0.49189    0.22152   1.00
O2       0.79253    0.43994    0.18263   1.00
O2       0.66204    0.44893    0.18224   1.00
O2       0.50811    0.26172    0.22152   1.00
O2       0.55107    0.21312    0.18224   1.00
O2       0.56006    0.35260    0.18263   1.00
C1       0.72687    0.24723    0.23975   1.00
C1       0.75277    0.47963    0.23975   1.00
C1       0.52037    0.27313    0.23975   1.00
C1       0.81063    0.39997    0.17661   1.00
C1       0.58933    0.18937    0.17661   1.00
C1       0.60003    0.41067    0.17661   1.00
O1       0.66667    0.33333    0.70833   1.00
Zn      0.66667    0.33333    0.73744   1.00
Zn      0.71818    0.29046    0.69942   1.00
Zn      0.57227    0.28182    0.69942   1.00
Zn      0.70954    0.42773    0.69942   1.00
O2       0.72807    0.30723    0.74746   1.00
O2       0.57917    0.27193    0.74746   1.00
O2       0.69277    0.42083    0.74746   1.00
O2       0.75362    0.26172    0.72152   1.00
O2       0.66204    0.21312    0.68224   1.00
O2       0.79253    0.35260    0.68263   1.00
O2       0.50811    0.24638    0.72152   1.00
O2       0.56006    0.20747    0.68263   1.00
O2       0.55107    0.33796    0.68224   1.00
O2       0.73828    0.49189    0.72152   1.00
O2       0.78688    0.44893    0.68224   1.00
O2       0.64740    0.43994    0.68263   1.00
C1       0.75277    0.27313    0.73975   1.00
C1       0.52037    0.24723    0.73975   1.00
C1       0.72687    0.47963    0.73975   1.00
C1       0.60003    0.18937    0.67661   1.00
C1       0.81063    0.41067    0.67661   1.00
C1       0.58933    0.39997    0.67661   1.00
O1       0.66667    0.33333    0.45833   1.00
Zn      0.66667    0.33333    0.42922   1.00
Zn      -0.37621   0.38485    0.46725   1.00
Zn      0.61515    0.23894    0.46725   1.00
Zn      0.76106    0.37621    0.46725   1.00
O2       0.64057    0.39473    0.41920   1.00
O2       0.60527    0.24583    0.41920   1.00
O2       0.75417    0.35943    0.41920   1.00
O2       0.59506    0.42028    0.44514   1.00
O2       0.54645    0.32871    0.48443   1.00
O2       -0.31407   0.45920    0.48404   1.00
O2       0.57972    0.17477    0.44514   1.00
O2       0.54080    0.22673    0.48404   1.00
O2       0.67129    0.21774    0.48443   1.00
O2       0.82523    0.40494    0.44514   1.00
O2       -0.21774   0.45355    0.48443   1.00
O2       0.77327    0.31407    0.48404   1.00
C1       0.60647    0.41943    0.42691   1.00
C1       0.58057    0.18703    0.42691   1.00
C1       0.81297    0.39353    0.42691   1.00
C1       0.52270    0.26670    0.49006   1.00
C1       -0.25600   0.47730    0.49006   1.00
C1       0.73330    0.25600    0.49006   1.00
O1       0.33333    0.66667    0.29167   1.00
Zn      0.33333    0.66667    0.26256   1.00
Zn      0.28182    0.70954    0.30058   1.00
Zn      0.42773    0.71818    0.30058   1.00
Zn      0.29046    0.57227    0.30058   1.00
O2       0.27193    0.69277    0.25254   1.00
O2       0.42083    0.72807    0.25254   1.00
O2       0.30723    0.57917    0.25254   1.00
O2       0.24638    0.73828    0.27848   1.00
O2       0.33796    0.78688    0.31776   1.00
O2       0.20747    0.64740    0.31737   1.00
O2       0.49189    0.75362    0.27848   1.00
O2       0.43994    0.79253    0.31737   1.00
O2       0.44893    0.66204    0.31776   1.00
O2       0.26172    0.50811    0.27848   1.00
O2       0.21312    0.55107    0.31776   1.00
O2       0.35260    0.56006    0.31737   1.00
C1       0.24723    0.72687    0.26025   1.00
C1       0.47963    0.75277    0.26025   1.00
C1       0.27313    0.52037    0.26025   1.00
C1       0.39997    0.81063    0.32339   1.00
C1       0.18937    0.58933    0.32339   1.00
C1       0.41067    0.60003    0.32339   1.00
O1       0.33333    0.66667    0.54167   1.00
Zn      0.33333    0.66667    0.57078   1.00
Zn      0.37621    0.61515    0.53275   1.00
Zn      0.38485    0.76106    0.53275   1.00
Zn      0.23894    -0.37621   0.53275   1.00
O2       0.35943    0.60527    0.58080   1.00
O2       0.39473    0.75417    0.58080   1.00
O2       0.24583    0.64057    0.58080   1.00
O2       0.40494    0.57972    0.55486   1.00
O2       0.45355    0.67129    0.51557   1.00
O2       0.31407    0.54080    0.51596   1.00
O2       0.42028    0.82523    0.55486   1.00
O2       0.45920    0.77327    0.51596   1.00
O2       0.32871    -0.21774   0.51557   1.00
O2       0.17477    0.59506    0.55486   1.00
O2       0.21774    0.54645    0.51557   1.00
O2       0.22673    -0.31407   0.51596   1.00
C1       0.39353    0.58057    0.57309   1.00
C1       0.41943    0.81297    0.57309   1.00
C1       0.18703    0.60647    0.57309   1.00
C1       0.47730    0.73330    0.50994   1.00
C1       0.25600    0.52270    0.50994   1.00
C1       0.26670    -0.25600   0.50994   1.00
O1       0.33333    0.66667    0.04167   1.00
Zn      0.33333    0.66667    0.07078   1.00
Zn      0.38485    -0.37621   0.03275   1.00
Zn      0.23894    0.61515    0.03275   1.00
Zn      0.37621    0.76106    0.03275   1.00
O2       0.39473    0.64057    0.08080   1.00
O2       0.24583    0.60527    0.08080   1.00
O2       0.35943    0.75417    0.08080   1.00
O2       0.42028    0.59506    0.05486   1.00
O2       0.32871    0.54645    0.01557   1.00
O2       0.45920    -0.31407   0.01596   1.00
O2       0.17477    0.57972    0.05486   1.00
O2       0.22673    0.54080    0.01596   1.00
O2       0.21774    0.67129    0.01557   1.00
O2       0.40494    0.82523    0.05486   1.00
O2       0.45355    -0.21774   0.01557   1.00
O2       0.31407    0.77327    0.01596   1.00
C1       0.41943    0.60647    0.07309   1.00
C1       0.18703    0.58057    0.07309   1.00
C1       0.39353    0.81297    0.07309   1.00
C1       0.26670    0.52270    0.00994   1.00
C1       0.47730    -0.25600   0.00994   1.00
C1       0.25600    0.73330    0.00994   1.00
O1       0.33333    0.66667    0.79167   1.00
Zn      0.33333    0.66667    0.76256   1.00
Zn      0.29046    0.71818    0.80058   1.00
Zn      0.28182    0.57227    0.80058   1.00
Zn      0.42773    0.70954    0.80058   1.00
O2       0.30723    0.72807    0.75254   1.00
O2       0.27193    0.57917    0.75254   1.00
O2       0.42083    0.69277    0.75254   1.00
O2       0.26172    0.75362    0.77848   1.00
O2       0.21312    0.66204    0.81776   1.00
O2       0.35260    0.79253    0.81737   1.00
O2       0.24638    0.50811    0.77848   1.00
O2       0.20747    0.56006    0.81737   1.00
O2       0.33796    0.55107    0.81776   1.00
O2       0.49189    0.73828    0.77848   1.00
O2       0.44893    0.78688    0.81776   1.00
O2       0.43994    0.64740    0.81737   1.00
C1       0.27313    0.75277    0.76025   1.00
C1       0.24723    0.52037    0.76025   1.00
C1       0.47963    0.72687    0.76025   1.00
C1       0.18937    0.60003    0.82339   1.00
C1       0.41067    0.81063    0.82339   1.00
C1       0.39997    0.58933    0.82339   1.00
C2       -0.19517   0.54372    0.50295   1.00
C3       -0.16012   0.60983    0.49861   1.00
H1       -0.15031   0.62306    0.48511   1.00
C3       -0.21043   0.52546    0.52269   1.00
H1       -0.23579   0.47949    0.52603   1.00
C3a      -0.13790   0.65948    0.51332   1.00
H1       -0.11352   0.70576    0.51029   1.00
C3b      -0.18938   0.57352    0.53796   1.00
H1       -0.20089   0.56074    0.55143   1.00
C6       -0.15368   0.64157    0.53335   1.00
C6       -0.13180   0.69351    0.54959   1.00
C3c      -0.17196   0.72135    0.55478   1.00
H1       -0.21524   0.70378    0.54920   1.00
C3d      -0.06956   0.71398    0.55897   1.00
H1       -0.04104   0.69684    0.55572   1.00
C3       -0.14851   0.77215    0.56938   1.00
H1       -0.17586   0.79027    0.57315   1.00
C3       -0.04793   0.76809    0.57358   1.00
H1       -0.00609   0.78404    0.57994   1.00
C2       -0.08630   0.79640    0.57845   1.00
C2       0.45628    0.26111    0.50295   1.00
C3       0.39017    0.23005    0.49861   1.00
H1       0.37694    0.22663    0.48511   1.00
C3       0.47454    0.26411    0.52269   1.00
H1       0.52051    0.28472    0.52603   1.00
C3a      0.34052    0.20262    0.51332   1.00
H1       0.29424    0.18072    0.51029   1.00
C3b      0.42648    0.23710    0.53796   1.00
H1       0.43926    0.23836    0.55143   1.00
C6       0.35843    0.20475    0.53335   1.00
C6       0.30649    0.17469    0.54959   1.00
C3c      0.27865    0.10669    0.55478   1.00
H1       0.29622    0.08097    0.54920   1.00
C3d      0.28602    0.21646    0.55897   1.00
H1       0.30316    0.26212    0.55572   1.00
C3       0.22785    0.07934    0.56938   1.00
H1       0.20973    0.03387    0.57315   1.00
C3       0.23191    0.18398    0.57358   1.00
H1       0.21596    0.20987    0.57994   1.00
C2       0.20360    0.11730    0.57845   1.00
C2       0.73889    0.19517    0.50295   1.00
C3       0.76995    0.16012    0.49861   1.00
H1       0.77337    0.15031    0.48511   1.00
C3       0.73589    0.21043    0.52269   1.00
H1       0.71528    0.23579    0.52603   1.00
C3a      0.79738    0.13790    0.51332   1.00
H1       0.81928    0.11352    0.51029   1.00
C3b      0.76290    0.18938    0.53796   1.00
H1       0.76164    0.20089    0.55143   1.00
C6       0.79525    0.15368    0.53335   1.00
C6       0.82531    0.13180    0.54959   1.00
C3c      0.89331    0.17196    0.55478   1.00
H1       0.91903    0.21524    0.54920   1.00
C3d      0.78354    0.06956    0.55897   1.00
H1       0.73788    0.04104    0.55572   1.00
C3       0.92066    0.14851    0.56938   1.00
H1       0.96613    0.17586    0.57315   1.00
C3       0.81602    0.04793    0.57358   1.00
H1       0.79013    0.00609    0.57994   1.00
C2       0.88270    0.08630    0.57845   1.00
C2       0.54372    -0.19517   0.99705   1.00
C3       0.60983    -0.16012   0.00139   1.00
H1       0.62306    -0.15031   0.01489   1.00
C3       0.52546    -0.21043   0.97731   1.00
H1       0.47949    -0.23579   0.97397   1.00
C3a      0.65948    -0.13790   0.98668   1.00
H1       0.70576    -0.11352   0.98971   1.00
C3b      0.57352    -0.18938   0.96204   1.00
H1       0.56074    -0.20089   0.94857   1.00
C6       0.64157    -0.15368   0.96665   1.00
C6       0.69351    -0.13180   0.95041   1.00
C3c      0.72135    -0.17196   0.94522   1.00
H1       0.70378    -0.21524   0.95080   1.00
C3d      0.71398    -0.06956   0.94103   1.00
H1       0.69684    -0.04104   0.94428   1.00
C3       0.77215    -0.14851   0.93062   1.00
H1       0.79027    -0.17586   0.92685   1.00
C3       0.76809    -0.04793   0.92642   1.00
H1       0.78404    -0.00609   0.92006   1.00
C2       0.79640    -0.08630   0.92155   1.00
C2       0.26111    0.45628    0.99705   1.00
C3       0.23005    0.39017    0.00139   1.00
H1       0.22663    0.37694    0.01489   1.00
C3       0.26411    0.47454    0.97731   1.00
H1       0.28472    0.52051    0.97397   1.00
C3a      0.20262    0.34052    0.98668   1.00
H1       0.18072    0.29424    0.98971   1.00
C3b      0.23710    0.42648    0.96204   1.00
H1       0.23836    0.43926    0.94857   1.00
C6       0.20475    0.35843    0.96665   1.00
C6       0.17469    0.30649    0.95041   1.00
C3c      0.10669    0.27865    0.94522   1.00
H1       0.08097    0.29622    0.95080   1.00
C3d      0.21646    0.28602    0.94103   1.00
H1       0.26212    0.30316    0.94428   1.00
C3       0.07934    0.22785    0.93062   1.00
H1       0.03387    0.20973    0.92685   1.00
C3       0.18398    0.23191    0.92642   1.00
H1       0.20987    0.21596    0.92006   1.00
C2       0.11730    0.20360    0.92155   1.00
C2       0.19517    0.73889    0.99705   1.00
C3       0.16012    0.76995    0.00139   1.00
H1       0.15031    0.77337    0.01489   1.00
C3       0.21043    0.73589    0.97731   1.00
H1       0.23579    0.71528    0.97397   1.00
C3a      0.13790    0.79738    0.98668   1.00
H1       0.11352    0.81928    0.98971   1.00
C3b      0.18938    0.76290    0.96204   1.00
H1       0.20089    0.76164    0.94857   1.00
C6       0.15368    0.79525    0.96665   1.00
C6       0.13180    0.82531    0.95041   1.00
C3c      0.17196    0.89331    0.94522   1.00
H1       0.21524    0.91903    0.95080   1.00
C3d      0.06956    0.78354    0.94103   1.00
H1       0.04104    0.73788    0.94428   1.00
C3       0.14851    0.92066    0.93062   1.00
H1       0.17586    0.96613    0.92685   1.00
C3       0.04793    0.81602    0.92642   1.00
H1       0.00609    0.79013    0.92006   1.00
C2       0.08630    0.88270    0.92155   1.00
C2       0.19517    0.45628    0.49705   1.00
C3       0.16012    0.39017    0.50139   1.00
H1       0.15031    0.37694    0.51489   1.00
C3       0.21043    0.47454    0.47731   1.00
H1       0.23579    0.52051    0.47397   1.00
C3a      0.13790    0.34052    0.48668   1.00
H1       0.11352    0.29424    0.48971   1.00
C3b      0.18938    0.42648    0.46204   1.00
H1       0.20089    0.43926    0.44857   1.00
C6       0.15368    0.35843    0.46665   1.00
C6       0.13180    0.30649    0.45041   1.00
C3c      0.17196    0.27865    0.44522   1.00
H1       0.21524    0.29622    0.45080   1.00
C3d      0.06956    0.28602    0.44103   1.00
H1       0.04104    0.30316    0.44428   1.00
C3       0.14851    0.22785    0.43062   1.00
H1       0.17586    0.20973    0.42685   1.00
C3       0.04793    0.23191    0.42642   1.00
H1       0.00609    0.21596    0.42006   1.00
C2       0.08630    0.20360    0.42155   1.00
C2       0.54372    0.73889    0.49705   1.00
C3       0.60983    0.76995    0.50139   1.00
H1       0.62306    0.77337    0.51489   1.00
C3       0.52546    0.73589    0.47731   1.00
H1       0.47949    0.71528    0.47397   1.00
C3a      0.65948    0.79738    0.48668   1.00
H1       0.70576    0.81928    0.48971   1.00
C3b      0.57352    0.76290    0.46204   1.00
H1       0.56074    0.76164    0.44857   1.00
C6       0.64157    0.79525    0.46665   1.00
C6       0.69351    0.82531    0.45041   1.00
C3c      0.72135    0.89331    0.44522   1.00
H1       0.70378    0.91903    0.45080   1.00
C3d      0.71398    0.78354    0.44103   1.00
H1       0.69684    0.73788    0.44428   1.00
C3       0.77215    0.92066    0.43062   1.00
H1       0.79027    0.96613    0.42685   1.00
C3       0.76809    0.81602    0.42642   1.00
H1       0.78404    0.79013    0.42006   1.00
C2       0.79640    0.88270    0.42155   1.00
C2       0.26111    -0.19517   0.49705   1.00
C3       0.23005    -0.16012   0.50139   1.00
H1       0.22663    -0.15031   0.51489   1.00
C3       0.26411    -0.21043   0.47731   1.00
H1       0.28472    -0.23579   0.47397   1.00
C3a      0.20262    -0.13790   0.48668   1.00
H1       0.18072    -0.11352   0.48971   1.00
C3b      0.23710    -0.18938   0.46204   1.00
H1       0.23836    -0.20089   0.44857   1.00
C6       0.20475    -0.15368   0.46665   1.00
C6       0.17469    -0.13180   0.45041   1.00
C3c      0.10669    -0.17196   0.44522   1.00
H1       0.08097    -0.21524   0.45080   1.00
C3d      0.21646    -0.06956   0.44103   1.00
H1       0.26212    -0.04104   0.44428   1.00
C3       0.07934    -0.14851   0.43062   1.00
H1       0.03387    -0.17586   0.42685   1.00
C3       0.18398    -0.04793   0.42642   1.00
H1       0.20987    -0.00609   0.42006   1.00
C2       0.11730    -0.08630   0.42155   1.00
C2       0.45628    0.19517    0.00295   1.00
C3       0.39017    0.16012    0.99861   1.00
H1       0.37694    0.15031    0.98511   1.00
C3       0.47454    0.21043    0.02269   1.00
H1       0.52051    0.23579    0.02603   1.00
C3a      0.34052    0.13790    0.01332   1.00
H1       0.29424    0.11352    0.01029   1.00
C3b      0.42648    0.18938    0.03796   1.00
H1       0.43926    0.20089    0.05143   1.00
C6       0.35843    0.15368    0.03335   1.00
C6       0.30649    0.13180    0.04959   1.00
C3c      0.27865    0.17196    0.05478   1.00
H1       0.29622    0.21524    0.04920   1.00
C3d      0.28602    0.06956    0.05897   1.00
H1       0.30316    0.04104    0.05572   1.00
C3       0.22785    0.14851    0.06938   1.00
H1       0.20973    0.17586    0.07315   1.00
C3       0.23191    0.04793    0.07358   1.00
H1       0.21596    0.00609    0.07994   1.00
C2       0.20360    0.08630    0.07845   1.00
C2       0.73889    0.54372    0.00295   1.00
C3       0.76995    0.60983    0.99861   1.00
H1       0.77337    0.62306    0.98511   1.00
C3       0.73589    0.52546    0.02269   1.00
H1       0.71528    0.47949    0.02603   1.00
C3a      0.79738    0.65948    0.01332   1.00
H1       0.81928    0.70576    0.01029   1.00
C3b      0.76290    0.57352    0.03796   1.00
H1       0.76164    0.56074    0.05143   1.00
C6       0.79525    0.64157    0.03335   1.00
C6       0.82531    0.69351    0.04959   1.00
C3c      0.89331    0.72135    0.05478   1.00
H1       0.91903    0.70378    0.04920   1.00
C3d      0.78354    0.71398    0.05897   1.00
H1       0.73788    0.69684    0.05572   1.00
C3       0.92066    0.77215    0.06938   1.00
H1       0.96613    0.79027    0.07315   1.00
C3       0.81602    0.76809    0.07358   1.00
H1       0.79013    0.78404    0.07994   1.00
C2       0.88270    0.79640    0.07845   1.00
C2       -0.19517   0.26111    0.00295   1.00
C3       -0.16012   0.23005    0.99861   1.00
H1       -0.15031   0.22663    0.98511   1.00
C3       -0.21043   0.26411    0.02269   1.00
H1       -0.23579   0.28472    0.02603   1.00
C3a      -0.13790   0.20262    0.01332   1.00
H1       -0.11352   0.18072    0.01029   1.00
C3b      -0.18938   0.23710    0.03796   1.00
H1       -0.20089   0.23836    0.05143   1.00
C6       -0.15368   0.20475    0.03335   1.00
C6       -0.13180   0.17469    0.04959   1.00
C3c      -0.17196   0.10669    0.05478   1.00
H1       -0.21524   0.08097    0.04920   1.00
C3d      -0.06956   0.21646    0.05897   1.00
H1       -0.04104   0.26212    0.05572   1.00
C3       -0.14851   0.07934    0.06938   1.00
H1       -0.17586   0.03387    0.07315   1.00
C3       -0.04793   0.18398    0.07358   1.00
H1       -0.00609   0.20987    0.07994   1.00
C2       -0.08630   0.11730    0.07845   1.00
C2       0.47150    0.87705    0.83628   1.00
C3       0.50655    0.94316    0.83194   1.00
H1       0.51636    0.95639    0.81844   1.00
C3       0.45624    0.85879    0.85602   1.00
H1       0.43088    0.81282    0.85936   1.00
C3a      0.52877    0.99281    0.84665   1.00
H1       0.55315    1.03909    0.84362   1.00
C3b      0.47729    0.90685    0.87129   1.00
H1       0.46578    0.89407    0.88476   1.00
C6       0.51299    0.97490    0.86668   1.00
C6       0.53487    0.02684    0.88292   1.00
C3c      0.49471    0.05468    0.88811   1.00
H1       0.45143    0.03711    0.88253   1.00
C3d      0.59711    0.04731    0.89230   1.00
H1       0.62563    0.03017    0.88905   1.00
C3       0.51816    0.10548    0.90271   1.00
H1       0.49081    0.12360    0.90648   1.00
C3       0.61874    0.10142    0.90691   1.00
H1       0.66058    0.11737    0.91327   1.00
C2       0.58037    0.12973    0.91178   1.00
C2       0.12295    0.59444    0.83628   1.00
C3       0.05684    0.56338    0.83194   1.00
H1       0.04361    0.55996    0.81844   1.00
C3       0.14121    0.59744    0.85602   1.00
H1       0.18718    0.61805    0.85936   1.00
C3a      0.00719    0.53595    0.84665   1.00
H1       -0.03909   0.51405    0.84362   1.00
C3b      0.09315    0.57043    0.87129   1.00
H1       0.10593    0.57169    0.88476   1.00
C6       0.02510    0.53808    0.86668   1.00
C6       0.97316    0.50802    0.88292   1.00
C3c      0.94532    0.44002    0.88811   1.00
H1       0.96289    0.41430    0.88253   1.00
C3d      0.95269    0.54979    0.89230   1.00
H1       0.96983    0.59545    0.88905   1.00
C3       0.89452    0.41267    0.90271   1.00
H1       0.87640    0.36720    0.90648   1.00
C3       0.89858    0.51731    0.90691   1.00
H1       0.88263    0.54320    0.91327   1.00
C2       0.87027    0.45063    0.91178   1.00
C2       0.40556    0.52850    0.83628   1.00
C3       0.43662    0.49345    0.83194   1.00
H1       0.44004    0.48364    0.81844   1.00
C3       0.40256    0.54376    0.85602   1.00
H1       0.38195    0.56912    0.85936   1.00
C3a      0.46405    0.47123    0.84665   1.00
H1       0.48595    0.44685    0.84362   1.00
C3b      0.42957    0.52271    0.87129   1.00
H1       0.42831    0.53422    0.88476   1.00
C6       0.46192    0.48701    0.86668   1.00
C6       0.49198    0.46513    0.88292   1.00
C3c      0.55998    0.50529    0.88811   1.00
H1       0.58570    0.54857    0.88253   1.00
C3d      0.45021    0.40289    0.89230   1.00
H1       0.40455    0.37437    0.88905   1.00
C3       0.58733    0.48184    0.90271   1.00
H1       0.63280    0.50919    0.90648   1.00
C3       0.48269    0.38126    0.90691   1.00
H1       0.45680    0.33942    0.91327   1.00
C2       0.54937    0.41963    0.91178   1.00
C2       0.21039    0.13816    0.33038   1.00
C3       0.27650    0.17321    0.33472   1.00
H1       0.28973    0.18302    0.34822   1.00
C3       0.19213    0.12290    0.31064   1.00
H1       0.14616    0.09754    0.30730   1.00
C3a      0.32615    0.19543    0.32001   1.00
H1       0.37243    0.21981    0.32304   1.00
C3b      0.24019    0.14395    0.29537   1.00
H1       0.22741    0.13244    0.28190   1.00
C6       0.30824    0.17965    0.29998   1.00
C6       0.36018    0.20153    0.28374   1.00
C3c      0.38802    0.16137    0.27855   1.00
H1       0.37045    0.11809    0.28413   1.00
C3d      0.38065    0.26377    0.27436   1.00
H1       0.36351    0.29229    0.27761   1.00
C3       0.43882    0.18482    0.26395   1.00
H1       0.45694    0.15747    0.26018   1.00
C3       0.43476    0.28540    0.25975   1.00
H1       0.45071    0.32724    0.25339   1.00
C2       0.46307    0.24703    0.25488   1.00
C2       0.92778    0.78961    0.33038   1.00
C3       0.89672    0.72350    0.33472   1.00
H1       0.89330    0.71027    0.34822   1.00
C3       0.93078    0.80787    0.31064   1.00
H1       0.95139    0.85384    0.30730   1.00
C3a      0.86929    0.67385    0.32001   1.00
H1       0.84739    0.62757    0.32304   1.00
C3b      0.90377    0.75981    0.29537   1.00
H1       0.90503    0.77259    0.28190   1.00
C6       0.87142    0.69176    0.29998   1.00
C6       0.84136    0.63982    0.28374   1.00
C3c      0.77336    0.61198    0.27855   1.00
H1       0.74764    0.62955    0.28413   1.00
C3d      0.88313    0.61935    0.27436   1.00
H1       0.92879    0.63649    0.27761   1.00
C3       0.74601    0.56118    0.26395   1.00
H1       0.70054    0.54306    0.26018   1.00
C3       0.85065    0.56524    0.25975   1.00
H1       0.87654    0.54929    0.25339   1.00
C2       0.78397    0.53693    0.25488   1.00
C2       0.86184    0.07222    0.33038   1.00
C3       0.82679    0.10328    0.33472   1.00
H1       0.81698    0.10670    0.34822   1.00
C3       0.87710    0.06922    0.31064   1.00
H1       0.90246    0.04861    0.30730   1.00
C3a      0.80457    0.13071    0.32001   1.00
H1       0.78019    0.15261    0.32304   1.00
C3b      0.85605    0.09623    0.29537   1.00
H1       0.86756    0.09497    0.28190   1.00
C6       0.82035    0.12858    0.29998   1.00
C6       0.79847    0.15864    0.28374   1.00
C3c      0.83863    0.22664    0.27855   1.00
H1       0.88191    0.25236    0.28413   1.00
C3d      0.73623    0.11687    0.27436   1.00
H1       0.70771    0.07121    0.27761   1.00
C3       0.81518    0.25399    0.26395   1.00
H1       0.84253    0.29946    0.26018   1.00
C3       0.71460    0.14935    0.25975   1.00
H1       0.67276    0.12346    0.25339   1.00
C2       0.75297    0.21603    0.25488   1.00
C2       0.86184    0.78961    0.83038   1.00
C3       0.82679    0.72350    0.83472   1.00
H1       0.81698    0.71027    0.84822   1.00
C3       0.87710    0.80787    0.81064   1.00
H1       0.90246    0.85384    0.80730   1.00
C3a      0.80457    0.67385    0.82001   1.00
H1       0.78019    0.62757    0.82304   1.00
C3b      0.85605    0.75981    0.79537   1.00
H1       0.86756    0.77259    0.78190   1.00
C6       0.82035    0.69176    0.79998   1.00
C6       0.79847    0.63982    0.78374   1.00
C3c      0.83863    0.61198    0.77855   1.00
H1       0.88191    0.62955    0.78413   1.00
C3d      0.73623    0.61935    0.77436   1.00
H1       0.70771    0.63649    0.77761   1.00
C3       0.81518    0.56118    0.76395   1.00
H1       0.84253    0.54306    0.76018   1.00
C3       0.71460    0.56524    0.75975   1.00
H1       0.67276    0.54929    0.75339   1.00
C2       0.75297    0.53693    0.75488   1.00
C2       0.21039    0.07222    0.83038   1.00
C3       0.27650    0.10328    0.83472   1.00
H1       0.28973    0.10670    0.84822   1.00
C3       0.19213    0.06922    0.81064   1.00
H1       0.14616    0.04861    0.80730   1.00
C3a      0.32615    0.13071    0.82001   1.00
H1       0.37243    0.15261    0.82304   1.00
C3b      0.24019    0.09623    0.79537   1.00
H1       0.22741    0.09497    0.78190   1.00
C6       0.30824    0.12858    0.79998   1.00
C6       0.36018    0.15864    0.78374   1.00
C3c      0.38802    0.22664    0.77855   1.00
H1       0.37045    0.25236    0.78413   1.00
C3d      0.38065    0.11687    0.77436   1.00
H1       0.36351    0.07121    0.77761   1.00
C3       0.43882    0.25399    0.76395   1.00
H1       0.45694    0.29946    0.76018   1.00
C3       0.43476    0.14935    0.75975   1.00
H1       0.45071    0.12346    0.75339   1.00
C2       0.46307    0.21603    0.75488   1.00
C2       0.92778    0.13816    0.83038   1.00
C3       0.89672    0.17321    0.83472   1.00
H1       0.89330    0.18302    0.84822   1.00
C3       0.93078    0.12290    0.81064   1.00
H1       0.95139    0.09754    0.80730   1.00
C3a      0.86929    0.19543    0.82001   1.00
H1       0.84739    0.21981    0.82304   1.00
C3b      0.90377    0.14395    0.79537   1.00
H1       0.90503    0.13244    0.78190   1.00
C6       0.87142    0.17965    0.79998   1.00
C6       0.84136    0.20153    0.78374   1.00
C3c      0.77336    0.16137    0.77855   1.00
H1       0.74764    0.11809    0.78413   1.00
C3d      0.88313    0.26377    0.77436   1.00
H1       0.92879    0.29229    0.77761   1.00
C3       0.74601    0.18482    0.76395   1.00
H1       0.70054    0.15747    0.76018   1.00
C3       0.85065    0.28540    0.75975   1.00
H1       0.87654    0.32724    0.75339   1.00
C2       0.78397    0.24703    0.75488   1.00
C2       0.12295    0.52850    0.33628   1.00
C3       0.05684    0.49345    0.33194   1.00
H1       0.04361    0.48364    0.31844   1.00
C3       0.14121    0.54376    0.35602   1.00
H1       0.18718    0.56912    0.35936   1.00
C3a      0.00719    0.47123    0.34665   1.00
H1       -0.03909   0.44685    0.34362   1.00
C3b      0.09315    0.52271    0.37129   1.00
H1       0.10593    0.53422    0.38476   1.00
C6       0.02510    0.48701    0.36668   1.00
C6       0.97316    0.46513    0.38292   1.00
C3c      0.94532    0.50529    0.38811   1.00
H1       0.96289    0.54857    0.38253   1.00
C3d      0.95269    0.40289    0.39230   1.00
H1       0.96983    0.37437    0.38905   1.00
C3       0.89452    0.48184    0.40271   1.00
H1       0.87640    0.50919    0.40648   1.00
C3       0.89858    0.38126    0.40691   1.00
H1       0.88263    0.33942    0.41327   1.00
C2       0.87027    0.41963    0.41178   1.00
C2       0.40556    0.87705    0.33628   1.00
C3       0.43662    0.94316    0.33194   1.00
H1       0.44004    0.95639    0.31844   1.00
C3       0.40256    0.85879    0.35602   1.00
H1       0.38195    0.81282    0.35936   1.00
C3a      0.46405    0.99281    0.34665   1.00
H1       0.48595    1.03909    0.34362   1.00
C3b      0.42957    0.90685    0.37129   1.00
H1       0.42831    0.89407    0.38476   1.00
C6       0.46192    0.97490    0.36668   1.00
C6       0.49198    0.02684    0.38292   1.00
C3c      0.55998    0.05468    0.38811   1.00
H1       0.58570    0.03711    0.38253   1.00
C3d      0.45021    0.04731    0.39230   1.00
H1       0.40455    0.03017    0.38905   1.00
C3       0.58733    0.10548    0.40271   1.00
H1       0.63280    0.12360    0.40648   1.00
C3       0.48269    0.10142    0.40691   1.00
H1       0.45680    0.11737    0.41327   1.00
C2       0.54937    0.12973    0.41178   1.00
C2       0.47150    0.59444    0.33628   1.00
C3       0.50655    0.56338    0.33194   1.00
H1       0.51636    0.55996    0.31844   1.00
C3       0.45624    0.59744    0.35602   1.00
H1       0.43088    0.61805    0.35936   1.00
C3a      0.52877    0.53595    0.34665   1.00
H1       0.55315    0.51405    0.34362   1.00
C3b      0.47729    0.57043    0.37129   1.00
H1       0.46578    0.57169    0.38476   1.00
C6       0.51299    0.53808    0.36668   1.00
C6       0.53487    0.50802    0.38292   1.00
C3c      0.49471    0.44002    0.38811   1.00
H1       0.45143    0.41430    0.38253   1.00
C3d      0.59711    0.54979    0.39230   1.00
H1       0.62563    0.59545    0.38905   1.00
C3       0.51816    0.41267    0.40271   1.00
H1       0.49081    0.36720    0.40648   1.00
C3       0.61874    0.51731    0.40691   1.00
H1       0.66058    0.54320    0.41327   1.00
C2       0.58037    0.45063    0.41178   1.00
C2       0.13816    0.21039    0.16962   1.00
C3       0.17321    0.27650    0.16528   1.00
H1       0.18302    0.28973    0.15178   1.00
C3       0.12290    0.19213    0.18936   1.00
H1       0.09754    0.14616    0.19270   1.00
C3a      0.19543    0.32615    0.17999   1.00
H1       0.21981    0.37243    0.17696   1.00
C3b      0.14395    0.24019    0.20463   1.00
H1       0.13244    0.22741    0.21810   1.00
C6       0.17965    0.30824    0.20002   1.00
C6       0.20153    0.36018    0.21626   1.00
C3c      0.16137    0.38802    0.22145   1.00
H1       0.11809    0.37045    0.21587   1.00
C3d      0.26377    0.38065    0.22564   1.00
H1       0.29229    0.36351    0.22239   1.00
C3       0.18482    0.43882    0.23605   1.00
H1       0.15747    0.45694    0.23982   1.00
C3       0.28540    0.43476    0.24025   1.00
H1       0.32724    0.45071    0.24661   1.00
C2       0.24703    0.46307    0.24512   1.00
C2       0.78961    0.92778    0.16962   1.00
C3       0.72350    0.89672    0.16528   1.00
H1       0.71027    0.89330    0.15178   1.00
C3       0.80787    0.93078    0.18936   1.00
H1       0.85384    0.95139    0.19270   1.00
C3a      0.67385    0.86929    0.17999   1.00
H1       0.62757    0.84739    0.17696   1.00
C3b      0.75981    0.90377    0.20463   1.00
H1       0.77259    0.90503    0.21810   1.00
C6       0.69176    0.87142    0.20002   1.00
C6       0.63982    0.84136    0.21626   1.00
C3c      0.61198    0.77336    0.22145   1.00
H1       0.62955    0.74764    0.21587   1.00
C3d      0.61935    0.88313    0.22564   1.00
H1       0.63649    0.92879    0.22239   1.00
C3       0.56118    0.74601    0.23605   1.00
H1       0.54306    0.70054    0.23982   1.00
C3       0.56524    0.85065    0.24025   1.00
H1       0.54929    0.87654    0.24661   1.00
C2       0.53693    0.78397    0.24512   1.00
C2       0.07222    0.86184    0.16962   1.00
C3       0.10328    0.82679    0.16528   1.00
H1       0.10670    0.81698    0.15178   1.00
C3       0.06922    0.87710    0.18936   1.00
H1       0.04861    0.90246    0.19270   1.00
C3a      0.13071    0.80457    0.17999   1.00
H1       0.15261    0.78019    0.17696   1.00
C3b      0.09623    0.85605    0.20463   1.00
H1       0.09497    0.86756    0.21810   1.00
C6       0.12858    0.82035    0.20002   1.00
C6       0.15864    0.79847    0.21626   1.00
C3c      0.22664    0.83863    0.22145   1.00
H1       0.25236    0.88191    0.21587   1.00
C3d      0.11687    0.73623    0.22564   1.00
H1       0.07121    0.70771    0.22239   1.00
C3       0.25399    0.81518    0.23605   1.00
H1       0.29946    0.84253    0.23982   1.00
C3       0.14935    0.71460    0.24025   1.00
H1       0.12346    0.67276    0.24661   1.00
C2       0.21603    0.75297    0.24512   1.00
C2       0.87705    0.47150    0.66372   1.00
C3       0.94316    0.50655    0.66806   1.00
H1       0.95639    0.51636    0.68156   1.00
C3       0.85879    0.45624    0.64398   1.00
H1       0.81282    0.43088    0.64064   1.00
C3a      0.99281    0.52877    0.65335   1.00
H1       1.03909    0.55315    0.65638   1.00
C3b      0.90685    0.47729    0.62871   1.00
H1       0.89407    0.46578    0.61524   1.00
C6       0.97490    0.51299    0.63332   1.00
C6       0.02684    0.53487    0.61708   1.00
C3c      0.05468    0.49471    0.61189   1.00
H1       0.03711    0.45143    0.61747   1.00
C3d      0.04731    0.59711    0.60770   1.00
H1       0.03017    0.62563    0.61095   1.00
C3       0.10548    0.51816    0.59729   1.00
H1       0.12360    0.49081    0.59352   1.00
C3       0.10142    0.61874    0.59309   1.00
H1       0.11737    0.66058    0.58673   1.00
C2       0.12973    0.58037    0.58822   1.00
C2       0.59444    0.12295    0.66372   1.00
C3       0.56338    0.05684    0.66806   1.00
H1       0.55996    0.04361    0.68156   1.00
C3       0.59744    0.14121    0.64398   1.00
H1       0.61805    0.18718    0.64064   1.00
C3a      0.53595    0.00719    0.65335   1.00
H1       0.51405    -0.03909   0.65638   1.00
C3b      0.57043    0.09315    0.62871   1.00
H1       0.57169    0.10593    0.61524   1.00
C6       0.53808    0.02510    0.63332   1.00
C6       0.50802    0.97316    0.61708   1.00
C3c      0.44002    0.94532    0.61189   1.00
H1       0.41430    0.96289    0.61747   1.00
C3d      0.54979    0.95269    0.60770   1.00
H1       0.59545    0.96983    0.61095   1.00
C3       0.41267    0.89452    0.59729   1.00
H1       0.36720    0.87640    0.59352   1.00
C3       0.51731    0.89858    0.59309   1.00
H1       0.54320    0.88263    0.58673   1.00
C2       0.45063    0.87027    0.58822   1.00
C2       0.52850    0.40556    0.66372   1.00
C3       0.49345    0.43662    0.66806   1.00
H1       0.48364    0.44004    0.68156   1.00
C3       0.54376    0.40256    0.64398   1.00
H1       0.56912    0.38195    0.64064   1.00
C3a      0.47123    0.46405    0.65335   1.00
H1       0.44685    0.48595    0.65638   1.00
C3b      0.52271    0.42957    0.62871   1.00
H1       0.53422    0.42831    0.61524   1.00
C6       0.48701    0.46192    0.63332   1.00
C6       0.46513    0.49198    0.61708   1.00
C3c      0.50529    0.55998    0.61189   1.00
H1       0.54857    0.58570    0.61747   1.00
C3d      0.40289    0.45021    0.60770   1.00
H1       0.37437    0.40455    0.61095   1.00
C3       0.48184    0.58733    0.59729   1.00
H1       0.50919    0.63280    0.59352   1.00
C3       0.38126    0.48269    0.59309   1.00
H1       0.33942    0.45680    0.58673   1.00
C2       0.41963    0.54937    0.58822   1.00
C2       0.52850    0.12295    0.16372   1.00
C3       0.49345    0.05684    0.16806   1.00
H1       0.48364    0.04361    0.18156   1.00
C3       0.54376    0.14121    0.14398   1.00
H1       0.56912    0.18718    0.14064   1.00
C3a      0.47123    0.00719    0.15335   1.00
H1       0.44685    -0.03909   0.15638   1.00
C3b      0.52271    0.09315    0.12871   1.00
H1       0.53422    0.10593    0.11524   1.00
C6       0.48701    0.02510    0.13332   1.00
C6       0.46513    0.97316    0.11708   1.00
C3c      0.50529    0.94532    0.11189   1.00
H1       0.54857    0.96289    0.11747   1.00
C3d      0.40289    0.95269    0.10770   1.00
H1       0.37437    0.96983    0.11095   1.00
C3       0.48184    0.89452    0.09729   1.00
H1       0.50919    0.87640    0.09352   1.00
C3       0.38126    0.89858    0.09309   1.00
H1       0.33942    0.88263    0.08673   1.00
C2       0.41963    0.87027    0.08822   1.00
C2       0.87705    0.40556    0.16372   1.00
C3       0.94316    0.43662    0.16806   1.00
H1       0.95639    0.44004    0.18156   1.00
C3       0.85879    0.40256    0.14398   1.00
H1       0.81282    0.38195    0.14064   1.00
C3a      0.99281    0.46405    0.15335   1.00
H1       1.03909    0.48595    0.15638   1.00
C3b      0.90685    0.42957    0.12871   1.00
H1       0.89407    0.42831    0.11524   1.00
C6       0.97490    0.46192    0.13332   1.00
C6       0.02684    0.49198    0.11708   1.00
C3c      0.05468    0.55998    0.11189   1.00
H1       0.03711    0.58570    0.11747   1.00
C3d      0.04731    0.45021    0.10770   1.00
H1       0.03017    0.40455    0.11095   1.00
C3       0.10548    0.58733    0.09729   1.00
H1       0.12360    0.63280    0.09352   1.00
C3       0.10142    0.48269    0.09309   1.00
H1       0.11737    0.45680    0.08673   1.00
C2       0.12973    0.54937    0.08822   1.00
C2       0.59444    0.47150    0.16372   1.00
C3       0.56338    0.50655    0.16806   1.00
H1       0.55996    0.51636    0.18156   1.00
C3       0.59744    0.45624    0.14398   1.00
H1       0.61805    0.43088    0.14064   1.00
C3a      0.53595    0.52877    0.15335   1.00
H1       0.51405    0.55315    0.15638   1.00
C3b      0.57043    0.47729    0.12871   1.00
H1       0.57169    0.46578    0.11524   1.00
C6       0.53808    0.51299    0.13332   1.00
C6       0.50802    0.53487    0.11708   1.00
C3c      0.44002    0.49471    0.11189   1.00
H1       0.41430    0.45143    0.11747   1.00
C3d      0.54979    0.59711    0.10770   1.00
H1       0.59545    0.62563    0.11095   1.00
C3       0.41267    0.51816    0.09729   1.00
H1       0.36720    0.49081    0.09352   1.00
C3       0.51731    0.61874    0.09309   1.00
H1       0.54320    0.66058    0.08673   1.00
C2       0.45063    0.58037    0.08822   1.00
C2       0.78961    0.86184    0.66962   1.00
C3       0.72350    0.82679    0.66528   1.00
H1       0.71027    0.81698    0.65178   1.00
C3       0.80787    0.87710    0.68936   1.00
H1       0.85384    0.90246    0.69270   1.00
C3a      0.67385    0.80457    0.67999   1.00
H1       0.62757    0.78019    0.67696   1.00
C3b      0.75981    0.85605    0.70463   1.00
H1       0.77259    0.86756    0.71810   1.00
C6       0.69176    0.82035    0.70002   1.00
C6       0.63982    0.79847    0.71626   1.00
C3c      0.61198    0.83863    0.72145   1.00
H1       0.62955    0.88191    0.71587   1.00
C3d      0.61935    0.73623    0.72564   1.00
H1       0.63649    0.70771    0.72239   1.00
C3       0.56118    0.81518    0.73605   1.00
H1       0.54306    0.84253    0.73982   1.00
C3       0.56524    0.71460    0.74025   1.00
H1       0.54929    0.67276    0.74661   1.00
C2       0.53693    0.75297    0.74512   1.00
C2       0.07222    0.21039    0.66962   1.00
C3       0.10328    0.27650    0.66528   1.00
H1       0.10670    0.28973    0.65178   1.00
C3       0.06922    0.19213    0.68936   1.00
H1       0.04861    0.14616    0.69270   1.00
C3a      0.13071    0.32615    0.67999   1.00
H1       0.15261    0.37243    0.67696   1.00
C3b      0.09623    0.24019    0.70463   1.00
H1       0.09497    0.22741    0.71810   1.00
C6       0.12858    0.30824    0.70002   1.00
C6       0.15864    0.36018    0.71626   1.00
C3c      0.22664    0.38802    0.72145   1.00
H1       0.25236    0.37045    0.71587   1.00
C3d      0.11687    0.38065    0.72564   1.00
H1       0.07121    0.36351    0.72239   1.00
C3       0.25399    0.43882    0.73605   1.00
H1       0.29946    0.45694    0.73982   1.00
C3       0.14935    0.43476    0.74025   1.00
H1       0.12346    0.45071    0.74661   1.00
C2       0.21603    0.46307    0.74512   1.00
C2       0.13816    0.92778    0.66962   1.00
C3       0.17321    0.89672    0.66528   1.00
H1       0.18302    0.89330    0.65178   1.00
C3       0.12290    0.93078    0.68936   1.00
H1       0.09754    0.95139    0.69270   1.00
C3a      0.19543    0.86929    0.67999   1.00
H1       0.21981    0.84739    0.67696   1.00
C3b      0.14395    0.90377    0.70463   1.00
H1       0.13244    0.90503    0.71810   1.00
C6       0.17965    0.87142    0.70002   1.00
C6       0.20153    0.84136    0.71626   1.00
C3c      0.16137    0.77336    0.72145   1.00
H1       0.11809    0.74764    0.71587   1.00
C3d      0.26377    0.88313    0.72564   1.00
H1       0.29229    0.92879    0.72239   1.00
C3       0.18482    0.74601    0.73605   1.00
H1       0.15747    0.70054    0.73982   1.00
C3       0.28540    0.85065    0.74025   1.00
H1       0.32724    0.87654    0.74661   1.00
C2       0.24703    0.78397    0.74512   1.00
