data_IRMOF10_interpen_symm_ligand3lp_label_a_1.

_audit_creation_method             'generated by an auxiliary program of Tobunporous'

_symmetry_space_group_name_H-M     'P 1'
_symmetry_Int_Tables_number        1
_symmetry_cell_setting             triclinic

_cell_length_a                    22.6523
_cell_length_b                    22.6523
_cell_length_c                    65.9502
_cell_angle_alpha                 90.0000
_cell_angle_beta                  90.0000
_cell_angle_gamma                 120.0000

loop_
_atom_site_label
_atom_site_fract_x
_atom_site_fract_y
_atom_site_fract_z
_atom_site_occupancy
O1       0.00000    -0.00000   0.62500   1.00
Zn1      0.00000    -0.00000   0.59589   1.00
Zn1      0.94848    1.04288    0.63392   1.00
Zn1      0.09439    0.05152    0.63392   1.00
Zn1      -0.04288   0.90561    0.63392   1.00
O2       0.93860    0.02610    0.58587   1.00
O2       0.08750    0.06140    0.58587   1.00
O2       -0.02610   0.91250    0.58587   1.00
O2       0.91305    0.07161    0.61181   1.00
O2       0.00462    0.12022    0.65110   1.00
O2       0.87413    0.98074    0.65071   1.00
O2       0.15856    0.08695    0.61181   1.00
O2       0.10660    0.12587    0.65071   1.00
O2       0.11559    0.99538    0.65110   1.00
O2       -0.07161   0.84144    0.61181   1.00
O2       0.87978    0.88441    0.65110   1.00
O2       0.01926    0.89340    0.65071   1.00
C1       0.91390    0.06020    0.59358   1.00
C1       0.14630    0.08610    0.59358   1.00
C1       -0.06020   0.85370    0.59358   1.00
C1       0.06663    0.14397    0.65673   1.00
C1       0.85603    0.92267    0.65673   1.00
C1       0.07733    0.93337    0.65673   1.00
O1       -0.00000   0.00000    0.87500   1.00
Zn1      -0.00000   0.00000    0.90411   1.00
Zn1      1.04288    0.94848    0.86608   1.00
Zn1      0.05152    0.09439    0.86608   1.00
Zn1      0.90561    -0.04288   0.86608   1.00
O2       0.02610    0.93860    0.91413   1.00
O2       0.06140    0.08750    0.91413   1.00
O2       0.91250    -0.02610   0.91413   1.00
O2       0.07161    0.91305    0.88819   1.00
O2       0.12022    0.00462    0.84890   1.00
O2       0.98074    0.87413    0.84929   1.00
O2       0.08695    0.15856    0.88819   1.00
O2       0.12587    0.10660    0.84929   1.00
O2       0.99538    0.11559    0.84890   1.00
O2       0.84144    -0.07161   0.88819   1.00
O2       0.88441    0.87978    0.84890   1.00
O2       0.89340    0.01926    0.84929   1.00
C1       0.06020    0.91390    0.90642   1.00
C1       0.08610    0.14630    0.90642   1.00
C1       0.85370    -0.06020   0.90642   1.00
C1       0.14397    0.06663    0.84327   1.00
C1       0.92267    0.85603    0.84327   1.00
C1       0.93337    0.07733    0.84327   1.00
O1       0.00000    0.00000    0.37500   1.00
Zn1      0.00000    0.00000    0.40411   1.00
Zn1      0.05152    -0.04288   0.36608   1.00
Zn1      0.90561    0.94848    0.36608   1.00
Zn1      1.04288    0.09439    0.36608   1.00
O2       0.06140    -0.02610   0.41413   1.00
O2       0.91250    0.93860    0.41413   1.00
O2       0.02610    0.08750    0.41413   1.00
O2       0.08695    -0.07161   0.38819   1.00
O2       0.99538    0.87978    0.34890   1.00
O2       0.12587    0.01926    0.34929   1.00
O2       0.84144    0.91305    0.38819   1.00
O2       0.89340    0.87413    0.34929   1.00
O2       0.88441    0.00462    0.34890   1.00
O2       0.07161    0.15856    0.38819   1.00
O2       0.12022    0.11559    0.34890   1.00
O2       0.98074    0.10660    0.34929   1.00
C1       0.08610    -0.06020   0.40642   1.00
C1       0.85370    0.91390    0.40642   1.00
C1       0.06020    0.14630    0.40642   1.00
C1       0.93337    0.85603    0.34327   1.00
C1       0.14397    0.07733    0.34327   1.00
C1       0.92267    0.06663    0.34327   1.00
O1       0.00000    0.00000    0.12500   1.00
Zn1      0.00000    0.00000    0.09589   1.00
Zn1      -0.04288   0.05152    0.13392   1.00
Zn1      0.94848    0.90561    0.13392   1.00
Zn1      0.09439    1.04288    0.13392   1.00
O2       -0.02610   0.06140    0.08587   1.00
O2       0.93860    0.91250    0.08587   1.00
O2       0.08750    0.02610    0.08587   1.00
O2       -0.07161   0.08695    0.11181   1.00
O2       0.87978    0.99538    0.15110   1.00
O2       0.01926    0.12587    0.15071   1.00
O2       0.91305    0.84144    0.11181   1.00
O2       0.87413    0.89340    0.15071   1.00
O2       0.00462    0.88441    0.15110   1.00
O2       0.15856    0.07161    0.11181   1.00
O2       0.11559    0.12022    0.15110   1.00
O2       0.10660    0.98074    0.15071   1.00
C1       -0.06020   0.08610    0.09358   1.00
C1       0.91390    0.85370    0.09358   1.00
C1       0.14630    0.06020    0.09358   1.00
C1       0.85603    0.93337    0.15673   1.00
C1       0.07733    0.14397    0.15673   1.00
C1       0.06663    0.92267    0.15673   1.00
O1       0.66667    0.33333    0.95833   1.00
Zn1      0.66667    0.33333    0.92922   1.00
Zn1      0.61515    0.37621    0.96725   1.00
Zn1      0.76106    0.38485    0.96725   1.00
Zn1      -0.37621   0.23894    0.96725   1.00
O2       0.60527    0.35943    0.91920   1.00
O2       0.75417    0.39473    0.91920   1.00
O2       0.64057    0.24583    0.91920   1.00
O2       0.57972    0.40494    0.94514   1.00
O2       0.67129    0.45355    0.98443   1.00
O2       0.54080    0.31407    0.98404   1.00
O2       0.82523    0.42028    0.94514   1.00
O2       0.77327    0.45920    0.98404   1.00
O2       -0.21774   0.32871    0.98443   1.00
O2       0.59506    0.17477    0.94514   1.00
O2       0.54645    0.21774    0.98443   1.00
O2       -0.31407   0.22673    0.98404   1.00
C1       0.58057    0.39353    0.92691   1.00
C1       0.81297    0.41943    0.92691   1.00
C1       0.60647    0.18703    0.92691   1.00
C1       0.73330    0.47730    0.99006   1.00
C1       0.52270    0.25600    0.99006   1.00
C1       -0.25600   0.26670    0.99006   1.00
O1       0.66667    0.33333    0.20833   1.00
Zn1      0.66667    0.33333    0.23744   1.00
Zn1      0.70954    0.28182    0.19942   1.00
Zn1      0.71818    0.42773    0.19942   1.00
Zn1      0.57227    0.29046    0.19942   1.00
O2       0.69277    0.27193    0.24746   1.00
O2       0.72807    0.42083    0.24746   1.00
O2       0.57917    0.30723    0.24746   1.00
O2       0.73828    0.24638    0.22152   1.00
O2       0.78688    0.33796    0.18224   1.00
O2       0.64740    0.20747    0.18263   1.00
O2       0.75362    0.49189    0.22152   1.00
O2       0.79253    0.43994    0.18263   1.00
O2       0.66204    0.44893    0.18224   1.00
O2       0.50811    0.26172    0.22152   1.00
O2       0.55107    0.21312    0.18224   1.00
O2       0.56006    0.35260    0.18263   1.00
C1       0.72687    0.24723    0.23975   1.00
C1       0.75277    0.47963    0.23975   1.00
C1       0.52037    0.27313    0.23975   1.00
C1       0.81063    0.39997    0.17661   1.00
C1       0.58933    0.18937    0.17661   1.00
C1       0.60003    0.41067    0.17661   1.00
O1       0.66667    0.33333    0.70833   1.00
Zn1      0.66667    0.33333    0.73744   1.00
Zn1      0.71818    0.29046    0.69942   1.00
Zn1      0.57227    0.28182    0.69942   1.00
Zn1      0.70954    0.42773    0.69942   1.00
O2       0.72807    0.30723    0.74746   1.00
O2       0.57917    0.27193    0.74746   1.00
O2       0.69277    0.42083    0.74746   1.00
O2       0.75362    0.26172    0.72152   1.00
O2       0.66204    0.21312    0.68224   1.00
O2       0.79253    0.35260    0.68263   1.00
O2       0.50811    0.24638    0.72152   1.00
O2       0.56006    0.20747    0.68263   1.00
O2       0.55107    0.33796    0.68224   1.00
O2       0.73828    0.49189    0.72152   1.00
O2       0.78688    0.44893    0.68224   1.00
O2       0.64740    0.43994    0.68263   1.00
C1       0.75277    0.27313    0.73975   1.00
C1       0.52037    0.24723    0.73975   1.00
C1       0.72687    0.47963    0.73975   1.00
C1       0.60003    0.18937    0.67661   1.00
C1       0.81063    0.41067    0.67661   1.00
C1       0.58933    0.39997    0.67661   1.00
O1       0.66667    0.33333    0.45833   1.00
Zn1      0.66667    0.33333    0.42922   1.00
Zn1      -0.37621   0.38485    0.46725   1.00
Zn1      0.61515    0.23894    0.46725   1.00
Zn1      0.76106    0.37621    0.46725   1.00
O2       0.64057    0.39473    0.41920   1.00
O2       0.60527    0.24583    0.41920   1.00
O2       0.75417    0.35943    0.41920   1.00
O2       0.59506    0.42028    0.44514   1.00
O2       0.54645    0.32871    0.48443   1.00
O2       -0.31407   0.45920    0.48404   1.00
O2       0.57972    0.17477    0.44514   1.00
O2       0.54080    0.22673    0.48404   1.00
O2       0.67129    0.21774    0.48443   1.00
O2       0.82523    0.40494    0.44514   1.00
O2       -0.21774   0.45355    0.48443   1.00
O2       0.77327    0.31407    0.48404   1.00
C1       0.60647    0.41943    0.42691   1.00
C1       0.58057    0.18703    0.42691   1.00
C1       0.81297    0.39353    0.42691   1.00
C1       0.52270    0.26670    0.49006   1.00
C1       -0.25600   0.47730    0.49006   1.00
C1       0.73330    0.25600    0.49006   1.00
O1       0.33333    0.66667    0.29167   1.00
Zn1      0.33333    0.66667    0.26256   1.00
Zn1      0.28182    0.70954    0.30058   1.00
Zn1      0.42773    0.71818    0.30058   1.00
Zn1      0.29046    0.57227    0.30058   1.00
O2       0.27193    0.69277    0.25254   1.00
O2       0.42083    0.72807    0.25254   1.00
O2       0.30723    0.57917    0.25254   1.00
O2       0.24638    0.73828    0.27848   1.00
O2       0.33796    0.78688    0.31776   1.00
O2       0.20747    0.64740    0.31737   1.00
O2       0.49189    0.75362    0.27848   1.00
O2       0.43994    0.79253    0.31737   1.00
O2       0.44893    0.66204    0.31776   1.00
O2       0.26172    0.50811    0.27848   1.00
O2       0.21312    0.55107    0.31776   1.00
O2       0.35260    0.56006    0.31737   1.00
C1       0.24723    0.72687    0.26025   1.00
C1       0.47963    0.75277    0.26025   1.00
C1       0.27313    0.52037    0.26025   1.00
C1       0.39997    0.81063    0.32339   1.00
C1       0.18937    0.58933    0.32339   1.00
C1       0.41067    0.60003    0.32339   1.00
O1       0.33333    0.66667    0.54167   1.00
Zn1      0.33333    0.66667    0.57078   1.00
Zn1      0.37621    0.61515    0.53275   1.00
Zn1      0.38485    0.76106    0.53275   1.00
Zn1      0.23894    -0.37621   0.53275   1.00
O2       0.35943    0.60527    0.58080   1.00
O2       0.39473    0.75417    0.58080   1.00
O2       0.24583    0.64057    0.58080   1.00
O2       0.40494    0.57972    0.55486   1.00
O2       0.45355    0.67129    0.51557   1.00
O2       0.31407    0.54080    0.51596   1.00
O2       0.42028    0.82523    0.55486   1.00
O2       0.45920    0.77327    0.51596   1.00
O2       0.32871    -0.21774   0.51557   1.00
O2       0.17477    0.59506    0.55486   1.00
O2       0.21774    0.54645    0.51557   1.00
O2       0.22673    -0.31407   0.51596   1.00
C1       0.39353    0.58057    0.57309   1.00
C1       0.41943    0.81297    0.57309   1.00
C1       0.18703    0.60647    0.57309   1.00
C1       0.47730    0.73330    0.50994   1.00
C1       0.25600    0.52270    0.50994   1.00
C1       0.26670    -0.25600   0.50994   1.00
O1       0.33333    0.66667    0.04167   1.00
Zn1      0.33333    0.66667    0.07078   1.00
Zn1      0.38485    -0.37621   0.03275   1.00
Zn1      0.23894    0.61515    0.03275   1.00
Zn1      0.37621    0.76106    0.03275   1.00
O2       0.39473    0.64057    0.08080   1.00
O2       0.24583    0.60527    0.08080   1.00
O2       0.35943    0.75417    0.08080   1.00
O2       0.42028    0.59506    0.05486   1.00
O2       0.32871    0.54645    0.01557   1.00
O2       0.45920    -0.31407   0.01596   1.00
O2       0.17477    0.57972    0.05486   1.00
O2       0.22673    0.54080    0.01596   1.00
O2       0.21774    0.67129    0.01557   1.00
O2       0.40494    0.82523    0.05486   1.00
O2       0.45355    -0.21774   0.01557   1.00
O2       0.31407    0.77327    0.01596   1.00
C1       0.41943    0.60647    0.07309   1.00
C1       0.18703    0.58057    0.07309   1.00
C1       0.39353    0.81297    0.07309   1.00
C1       0.26670    0.52270    0.00994   1.00
C1       0.47730    -0.25600   0.00994   1.00
C1       0.25600    0.73330    0.00994   1.00
O1       0.33333    0.66667    0.79167   1.00
Zn1      0.33333    0.66667    0.76256   1.00
Zn1      0.29046    0.71818    0.80058   1.00
Zn1      0.28182    0.57227    0.80058   1.00
Zn1      0.42773    0.70954    0.80058   1.00
O2       0.30723    0.72807    0.75254   1.00
O2       0.27193    0.57917    0.75254   1.00
O2       0.42083    0.69277    0.75254   1.00
O2       0.26172    0.75362    0.77848   1.00
O2       0.21312    0.66204    0.81776   1.00
O2       0.35260    0.79253    0.81737   1.00
O2       0.24638    0.50811    0.77848   1.00
O2       0.20747    0.56006    0.81737   1.00
O2       0.33796    0.55107    0.81776   1.00
O2       0.49189    0.73828    0.77848   1.00
O2       0.44893    0.78688    0.81776   1.00
O2       0.43994    0.64740    0.81737   1.00
C1       0.27313    0.75277    0.76025   1.00
C1       0.24723    0.52037    0.76025   1.00
C1       0.47963    0.72687    0.76025   1.00
C1       0.18937    0.60003    0.82339   1.00
C1       0.41067    0.81063    0.82339   1.00
C1       0.39997    0.58933    0.82339   1.00
C4       -0.13515   0.68460    0.55203   1.00
C4       -0.16348   0.62654    0.53891   1.00
C3       -0.07782   0.70324    0.56472   1.00
C3       -0.14129   0.57794    0.53853   1.00
C3       -0.16610   0.72613    0.55285   1.00
C3       -0.21691   0.61598    0.52529   1.00
C2       -0.08299   0.80083    0.57888   1.00
C2       -0.22444   0.50961    0.51225   1.00
C3       -0.05266   0.75950    0.57786   1.00
C3       -0.17047   0.52143    0.52544   1.00
C3       -0.13916   0.78343    0.56594   1.00
C3       -0.24758   0.55715    0.51284   1.00
H1       -0.05251   0.67661    0.56474   1.00
H1       -0.10358   0.58194    0.54785   1.00
C5       -0.22356   0.71034    0.54055   1.00
C5       -0.23990   0.66374    0.52427   1.00
H1       -0.01135   0.77022    0.58680   1.00
H1       -0.15196   0.48828    0.52571   1.00
H1       -0.16071   0.81385    0.56595   1.00
H1       -0.28865   0.54804    0.50413   1.00
O3       -0.26000   0.74327    0.54381   1.00
O3       -0.28139   0.66197    0.50862   1.00
Si1      -0.32661   0.70900    0.55867   1.00
Si1      -0.24628   0.70026    0.48734   1.00
C6       -0.34053   0.77904    0.55926   1.00
C6       -0.39256   0.63934    0.54558   1.00
C6       -0.30891   0.68999    0.58313   1.00
C6       -0.15666   0.73979    0.48504   1.00
C6       -0.28511   0.63468    0.46933   1.00
C6       -0.27311   0.75979    0.48261   1.00
C6       -0.27596   0.85042    0.56331   1.00
H2       -0.35521   0.78101    0.54361   1.00
C6       -0.39842   0.77755    0.57274   1.00
H2       -0.37795   0.65361    0.52979   1.00
C6       -0.39945   0.56749    0.54821   1.00
C6       -0.46695   0.62659    0.54744   1.00
H2       -0.26253   0.73717    0.58720   1.00
C6       -0.36193   0.67714    0.60028   1.00
C6       -0.29249   0.63073    0.58589   1.00
C6       -0.11170   0.79570    0.50091   1.00
C6       -0.12278   0.69471    0.48199   1.00
H2       -0.14725   0.76688    0.47065   1.00
H2       -0.26378   0.60186    0.47256   1.00
C6       -0.36423   0.58756    0.47125   1.00
C6       -0.27004   0.65499    0.44646   1.00
H2       -0.32394   0.72925    0.47609   1.00
C6       -0.28354   0.79468    0.50158   1.00
C6       -0.23145   0.81828    0.46701   1.00
H2       -0.23547   0.86141    0.55238   1.00
H2       -0.25560   0.85304    0.57852   1.00
H2       -0.28790   0.89143    0.56189   1.00
H2       -0.41949   0.80620    0.56535   1.00
H2       -0.44039   0.72624    0.57545   1.00
H2       -0.37960   0.80137    0.58753   1.00
H2       -0.43170   0.53266    0.53629   1.00
H2       -0.35047   0.56966    0.54707   1.00
H2       -0.42265   0.54476    0.56276   1.00
H2       -0.46974   0.67151    0.54295   1.00
H2       -0.50195   0.58532    0.53741   1.00
H2       -0.48614   0.61244    0.56291   1.00
H2       -0.41317   0.63774    0.59585   1.00
H2       -0.34924   0.66110    0.61450   1.00
H2       -0.36270   0.72348    0.60399   1.00
H2       -0.33856   0.58135    0.58798   1.00
H2       -0.26501   0.62543    0.57322   1.00
H2       -0.26077   0.64003    0.59935   1.00
H2       -0.10526   0.77340    0.51478   1.00
H2       -0.06070   0.82922    0.49480   1.00
H2       -0.13295   0.82791    0.50493   1.00
H2       -0.06893   0.72641    0.47798   1.00
H2       -0.12477   0.66685    0.49566   1.00
H2       -0.14635   0.65812    0.46967   1.00
H2       -0.38179   0.54208    0.46181   1.00
H2       -0.37919   0.56984    0.48683   1.00
H2       -0.39162   0.61345    0.46650   1.00
H2       -0.21549   0.68648    0.44355   1.00
H2       -0.28854   0.60942    0.43699   1.00
H2       -0.29540   0.68260    0.44135   1.00
H2       -0.23628   0.82505    0.50998   1.00
H2       -0.30397   0.82769    0.49743   1.00
H2       -0.32011   0.75614    0.51179   1.00
H2       -0.25884   0.84510    0.46310   1.00
H2       -0.18182   0.85585    0.47314   1.00
H2       -0.22307   0.79862    0.45286   1.00
C4       0.31777    0.18082    0.55292   1.00
C4       0.37538    0.20985    0.53962   1.00
C3       0.31959    0.20368    0.57309   1.00
C3       0.44193    0.26028    0.54574   1.00
C3       0.25482    0.12511    0.54593   1.00
C3       0.36660    0.18778    0.51900   1.00
C2       0.19999    0.11722    0.57920   1.00
C2       0.48957    0.26491    0.51193   1.00
C3       0.26248    0.17254    0.58591   1.00
C3       0.49735    0.28754    0.53223   1.00
C3       0.19742    0.09523    0.55897   1.00
C3       0.42367    0.21377    0.50588   1.00
H1       0.36241    0.24376    0.57903   1.00
H1       0.45220    0.27839    0.56021   1.00
C5       0.24954    0.09981    0.52592   1.00
C5       0.30114    0.13951    0.51162   1.00
H1       0.26696    0.19094    0.60040   1.00
H1       0.54419    0.32432    0.53746   1.00
H1       0.15209    0.05655    0.55356   1.00
H1       0.41737    0.19429    0.49154   1.00
O3       0.19278    0.03940    0.52037   1.00
O3       0.28896    0.12762    0.49106   1.00
Si1      0.19354    -0.03213   0.52225   1.00
Si1      0.27068    0.17736    0.47787   1.00
C6       0.10645    -0.08725   0.51678   1.00
C6       0.24598    -0.03320   0.50265   1.00
C6       0.21441    -0.04701   0.54681   1.00
C6       0.27026    0.24614    0.49043   1.00
C6       0.33364    0.20910    0.45894   1.00
C6       0.19133    0.12506    0.46612   1.00
C6       0.05490    -0.07254   0.52849   1.00
H2       0.10311    -0.07510   0.50094   1.00
C6       0.07455    -0.16676   0.51751   1.00
H2       0.24298    0.00071    0.49146   1.00
C6       0.32371    -0.00305   0.50709   1.00
C6       0.22341    -0.10181   0.49122   1.00
H2       0.18161    -0.03613   0.55639   1.00
C6       0.19645    -0.12167   0.55204   1.00
C6       0.28911    -0.00158   0.55500   1.00
C6       0.22219    0.22976    0.50917   1.00
C6       0.33957    0.31069    0.49628   1.00
H2       0.24952    0.26510    0.47882   1.00
H2       0.38034    0.24321    0.46714   1.00
C6       0.34801    0.15562    0.44837   1.00
C6       0.32672    0.25246    0.44163   1.00
H2       0.20390    0.10456    0.45287   1.00
C6       0.13896    0.06122    0.47834   1.00
C6       0.15096    0.15952    0.45788   1.00
H2       0.06642    -0.02004   0.52625   1.00
H2       0.05594    -0.08102   0.54478   1.00
H2       0.00273    -0.10541   0.52313   1.00
H2       0.03437    -0.19086   0.50609   1.00
H2       0.11160    -0.18290   0.51459   1.00
H2       0.05078    -0.18823   0.53212   1.00
H2       0.35237    0.00660    0.49295   1.00
H2       0.34566    0.04558    0.51499   1.00
H2       0.33266    -0.03827   0.51609   1.00
H2       0.17244    -0.12258   0.48478   1.00
H2       0.25735    -0.09447   0.47846   1.00
H2       0.22416    -0.13970   0.50130   1.00
H2       0.21813    -0.14115   0.54089   1.00
H2       0.21546    -0.12510   0.56701   1.00
H2       0.14166    -0.15576   0.55274   1.00
H2       0.32218    -0.02177   0.55073   1.00
H2       0.31356    0.05069    0.54972   1.00
H2       0.28877    0.00028    0.57158   1.00
H2       0.24542    0.22444    0.52300   1.00
H2       0.21122    0.27102    0.51176   1.00
H2       0.17341    0.18329    0.50706   1.00
H2       0.33127    0.35208    0.50124   1.00
H2       0.36511    0.30072    0.50867   1.00
H2       0.37465    0.33056    0.48347   1.00
H2       0.39508    0.18141    0.43949   1.00
H2       0.35487    0.12375    0.45948   1.00
H2       0.30685    0.12227    0.43813   1.00
H2       0.31856    0.29270    0.44766   1.00
H2       0.37344    0.27743    0.43257   1.00
H2       0.28473    0.22073    0.43140   1.00
H2       0.12410    0.07504    0.49251   1.00
H2       0.09284    0.02950    0.46953   1.00
H2       0.16112    0.02974    0.48204   1.00
H2       0.10842    0.12415    0.44831   1.00
H2       0.12992    0.17548    0.47025   1.00
H2       0.18304    0.20403    0.44857   1.00
C4       0.82377    0.14302    0.55342   1.00
C4       0.79465    0.17061    0.53979   1.00
C3       0.86831    0.18067    0.56956   1.00
C3       0.81198    0.24017    0.53977   1.00
C3       0.80870    0.07432    0.55072   1.00
C3       0.74525    0.12670    0.52532   1.00
C2       0.88325    0.08462    0.57971   1.00
C2       0.73462    0.22281    0.51142   1.00
C3       0.89756    0.15245    0.58227   1.00
C3       0.78234    0.26545    0.52611   1.00
C3       0.83771    0.04638    0.56395   1.00
C3       0.71818    0.15380    0.51112   1.00
H1       0.88062    0.22961    0.57259   1.00
H1       0.84694    0.27460    0.54960   1.00
C5       0.76452    0.03388    0.53488   1.00
C5       0.72353    0.05615    0.52496   1.00
H1       0.92980    0.18227    0.59360   1.00
H1       0.79638    0.31608    0.52692   1.00
H1       0.82494    -0.00355   0.56218   1.00
H1       0.68619    0.12264    0.50004   1.00
O3       0.75910    -0.02796   0.53021   1.00
O3       0.66675    0.01074    0.51399   1.00
Si1      0.80717    -0.03225   0.51248   1.00
Si1      0.59162    -0.02040   0.52440   1.00
C6       0.78525    -0.11783   0.51665   1.00
C6       0.77570    -0.02271   0.48898   1.00
C6       0.89509    0.02383    0.51648   1.00
C6       0.58630    0.00791    0.54896   1.00
C6       0.54730    0.00243    0.50718   1.00
C6       0.55365    -0.10988   0.52409   1.00
C6       0.78666    -0.13826   0.53930   1.00
H2       0.73158    -0.14555   0.51225   1.00
C6       0.82013    -0.15130   0.50425   1.00
H2       0.72247    -0.03996   0.49259   1.00
C6       0.80527    0.05078    0.48008   1.00
C6       0.77376    -0.06769   0.47068   1.00
H2       0.90114    0.01456    0.53241   1.00
C6       0.94615    0.00967    0.50430   1.00
C6       0.92493    0.10286    0.51427   1.00
C6       0.62766    -0.00149   0.56641   1.00
C6       0.59575    0.08085    0.55179   1.00
H2       0.53282    -0.02602   0.55283   1.00
H2       0.57130    0.05761    0.50890   1.00
C6       0.55540    -0.00961   0.48420   1.00
C6       0.46934    -0.02712   0.51096   1.00
H2       0.53381    -0.12412   0.50869   1.00
C6       0.60267    -0.13896   0.52684   1.00
C6       0.49172    -0.15231   0.53856   1.00
H2       0.75435    -0.12679   0.54890   1.00
H2       0.83839    -0.11124   0.54546   1.00
H2       0.76750    -0.19299   0.54073   1.00
H2       0.78397    -0.20546   0.50182   1.00
H2       0.83802    -0.12808   0.48944   1.00
H2       0.86369    -0.14854   0.51224   1.00
H2       0.77227    0.05143    0.46807   1.00
H2       0.80875    0.08713    0.49148   1.00
H2       0.85573    0.06904    0.47351   1.00
H2       0.74492    -0.12188   0.47439   1.00
H2       0.74842    -0.06073   0.45752   1.00
H2       0.82519    -0.05455   0.46601   1.00
H2       0.93574    0.00638    0.48804   1.00
H2       0.99920    0.04955    0.50667   1.00
H2       0.94375    -0.03722   0.50927   1.00
H2       0.93959    0.12015    0.49867   1.00
H2       0.88994    0.11967    0.51904   1.00
H2       0.97075    0.13041    0.52360   1.00
H2       0.68051    0.03970    0.56665   1.00
H2       0.60566    -0.00138   0.58117   1.00
H2       0.62734    -0.04959   0.56522   1.00
H2       0.58157    0.08706    0.56718   1.00
H2       0.64830    0.12097    0.54950   1.00
H2       0.56335    0.09004    0.54157   1.00
H2       0.53603    0.01648    0.47465   1.00
H2       0.60894    0.01086    0.48014   1.00
H2       0.52765    -0.06362   0.48024   1.00
H2       0.45894    -0.01914   0.52658   1.00
H2       0.44976    -0.00171   0.50119   1.00
H2       0.44024    -0.08163   0.50762   1.00
H2       0.62806    -0.12579   0.54155   1.00
H2       0.57579    -0.19441   0.52527   1.00
H2       0.64180    -0.11844   0.51520   1.00
H2       0.46641    -0.20657   0.53476   1.00
H2       0.50793    -0.14689   0.55439   1.00
H2       0.45330    -0.13693   0.53731   1.00
C4       0.68118    -0.14407   0.94676   1.00
C4       0.62456    -0.17129   0.96042   1.00
C3       0.69782    -0.18507   0.93441   1.00
C3       0.58274    -0.24204   0.96446   1.00
C3       0.72456    -0.07190   0.94547   1.00
C3       0.60819    -0.12580   0.97067   1.00
C2       0.79853    -0.08522   0.92026   1.00
C2       0.51191    -0.22221   0.98861   1.00
C3       0.75508    -0.15653   0.92162   1.00
C3       0.52757    -0.26688   0.97802   1.00
C3       0.78135    -0.04406   0.93218   1.00
C3       0.55419    -0.15165   0.98492   1.00
H1       0.66869    -0.23687   0.93431   1.00
H1       0.59138    -0.27756   0.95778   1.00
C5       0.71078    -0.02801   0.95739   1.00
C5       0.64606    -0.05476   0.96681   1.00
H1       0.76485    -0.18874   0.91315   1.00
H1       0.49873    -0.31859   0.98022   1.00
H1       0.81091    0.00785    0.93099   1.00
H1       0.54588    -0.11811   0.99309   1.00
O3       0.75858    0.04034    0.95867   1.00
O3       0.62314    -0.01171   0.97334   1.00
Si1      0.81376    0.06799    0.97722   1.00
Si1      0.56896    -0.00262   0.95926   1.00
C6       0.86480    0.15209    0.96819   1.00
C6       0.76977    0.06624    0.99948   1.00
C6       0.86093    0.02535    0.97897   1.00
C6       0.53984    -0.05079   0.93666   1.00
C6       0.49970    -0.02583   0.97568   1.00
C6       0.60564    0.08498    0.95388   1.00
C6       0.88545    0.15915    0.94524   1.00
H2       0.83020    0.17243    0.96935   1.00
C6       0.93136    0.20446    0.97969   1.00
H2       0.72698    0.07005    0.99340   1.00
C6       0.73737    0.00008    1.01274   1.00
C6       0.80588    0.12644    1.01493   1.00
H2       0.87654    0.02601    0.96325   1.00
C6       0.92830    0.06056    0.99174   1.00
C6       0.82437    -0.05120   0.98603   1.00
C6       0.59415    -0.04284   0.92060   1.00
C6       0.48664    -0.12889   0.93786   1.00
H2       0.51134    -0.02928   0.92949   1.00
H2       0.47782    -0.08074   0.97753   1.00
C6       0.51775    0.00442    0.99764   1.00
C6       0.44068    -0.01465   0.96801   1.00
H2       0.59556    0.10605    0.96747   1.00
C6       0.68466    0.12573    0.95134   1.00
C6       0.57594    0.10653    0.93571   1.00
H2       0.84075    0.13290    0.93545   1.00
H2       0.91864    0.13794    0.94229   1.00
H2       0.91241    0.21258    0.94050   1.00
H2       0.93905    0.25593    0.97818   1.00
H2       0.92977    0.19360    0.99580   1.00
H2       0.97692    0.20620    0.97348   1.00
H2       0.70011    -0.00019   1.02335   1.00
H2       0.71008    -0.04585   1.00360   1.00
H2       0.77610    -0.00347   1.02166   1.00
H2       0.82194    0.17551    1.00770   1.00
H2       0.77142    0.12193    1.02723   1.00
H2       0.85024    0.12734    1.02179   1.00
H2       0.91890    0.07262    1.00702   1.00
H2       0.95149    0.02838    0.99316   1.00
H2       0.96690    0.10706    0.98451   1.00
H2       0.82439    -0.05591   1.00250   1.00
H2       0.77180    -0.08056   0.98111   1.00
H2       0.85083    -0.07649   0.97983   1.00
H2       0.61586    -0.07505   0.92413   1.00
H2       0.57089    -0.05797   0.90557   1.00
H2       0.63572    0.00958    0.91935   1.00
H2       0.46662    -0.14918   0.92278   1.00
H2       0.50880    -0.15832   0.94379   1.00
H2       0.44268    -0.13940   0.94719   1.00
H2       0.47330    -0.02168   1.00758   1.00
H2       0.55805    -0.00247   1.00434   1.00
H2       0.53440    0.05872    0.99789   1.00
H2       0.42325    -0.03612   0.95291   1.00
H2       0.39659    -0.03991   0.97812   1.00
H2       0.45633    0.03945    0.96759   1.00
H2       0.70168    0.10755    0.93854   1.00
H2       0.70365    0.18015    0.94923   1.00
H2       0.70877    0.12054    0.96493   1.00
H2       0.59548    0.16154    0.93587   1.00
H2       0.58979    0.09381    0.92114   1.00
H2       0.52053    0.08195    0.93644   1.00
C4       0.18080    0.31783    0.94706   1.00
C4       0.20981    0.37542    0.96036   1.00
C3       0.20282    0.32001    0.92677   1.00
C3       0.25931    0.44223    0.95416   1.00
C3       0.12597    0.25451    0.95418   1.00
C3       0.18871    0.36635    0.98108   1.00
C2       0.11724    0.20002    0.92079   1.00
C2       0.26489    0.48954    0.98808   1.00
C3       0.17169    0.26287    0.91395   1.00
C3       0.28659    0.49762    0.96767   1.00
C3       0.09610    0.19711    0.94113   1.00
C3       0.21467    0.42337    0.99423   1.00
H1       0.24226    0.36311    0.92073   1.00
H1       0.27670    0.45272    0.93962   1.00
C5       0.10153    0.24886    0.97431   1.00
C5       0.14143    0.30066    0.98854   1.00
H1       0.18946    0.26762    0.89937   1.00
H1       0.32267    0.54467    0.96238   1.00
H1       0.05809    0.15154    0.94663   1.00
H1       0.19583    0.41681    1.00865   1.00
O3       0.04180    0.19162    0.98004   1.00
O3       0.13063    0.28837    1.00913   1.00
Si1      -0.03035   0.19128    0.97858   1.00
Si1      0.18166    0.27097    1.02197   1.00
C6       -0.08430   0.10401    0.98410   1.00
C6       -0.03128   0.24328    0.99833   1.00
C6       -0.04685   0.21179    0.95417   1.00
C6       0.25035    0.27161    1.00902   1.00
C6       0.21360    0.33391    1.04091   1.00
C6       0.13075    0.19142    1.03378   1.00
C6       -0.06927   0.05310    0.97214   1.00
H2       -0.07124   0.10087    0.99985   1.00
C6       -0.16395   0.07115    0.98373   1.00
H2       0.00347    0.24081    1.00932   1.00
C6       -0.00230   0.32087    0.99397   1.00
C6       -0.09950   0.21982    1.01010   1.00
H2       -0.03586   0.17942    0.94442   1.00
C6       -0.12205   0.19284    0.94931   1.00
C6       -0.00261   0.28661    0.94594   1.00
C6       0.23367    0.22368    0.99023   1.00
C6       0.31404    0.34138    1.00301   1.00
H2       0.27032    0.25131    1.02045   1.00
H2       0.24686    0.38078    1.03266   1.00
C6       0.16002    0.34734    1.05184   1.00
C6       0.25822    0.32768    1.05794   1.00
H2       0.11055    0.20357    1.04718   1.00
C6       0.06664    0.13849    1.02178   1.00
C6       0.16647    0.15188    1.04170   1.00
H2       -0.01645   0.06533    0.97411   1.00
H2       -0.07861   0.05402    0.95591   1.00
H2       -0.10133   0.00083    0.97754   1.00
H2       -0.18707   0.03090    0.99516   1.00
H2       -0.18062   0.10767    0.98686   1.00
H2       -0.18593   0.04725    0.96917   1.00
H2       0.00767    0.34945    1.00814   1.00
H2       0.04597    0.34340    0.98585   1.00
H2       -0.03835   0.32923    0.98520   1.00
H2       -0.11934   0.16893    1.01650   1.00
H2       -0.09200   0.25361    1.02291   1.00
H2       -0.13817   0.22000    1.00024   1.00
H2       -0.14146   0.21404    0.96064   1.00
H2       -0.12652   0.21166    0.93443   1.00
H2       -0.15559   0.13795    0.94865   1.00
H2       -0.02324   0.31912    0.95044   1.00
H2       0.04992    0.31167    0.95099   1.00
H2       -0.00154   0.28632    0.92936   1.00
H2       0.22729    0.24666    0.97650   1.00
H2       0.27527    0.21343    0.98736   1.00
H2       0.18769    0.17456    0.99246   1.00
H2       0.35562    0.33378    0.99778   1.00
H2       0.30301    0.36658    0.99075   1.00
H2       0.33414    0.37648    1.01581   1.00
H2       0.18572    0.39443    1.06070   1.00
H2       0.12727    0.35367    1.04092   1.00
H2       0.12754    0.30598    1.06214   1.00
H2       0.29859    0.32020    1.05166   1.00
H2       0.28311    0.37441    1.06700   1.00
H2       0.22739    0.28552    1.06823   1.00
H2       0.08009    0.12398    1.00748   1.00
H2       0.03581    0.09224    1.03062   1.00
H2       0.03440    0.16001    1.01832   1.00
H2       0.13195    0.10911    1.05135   1.00
H2       0.18227    0.13126    1.02918   1.00
H2       0.21128    0.18438    1.05084   1.00
C4       0.14303    0.82378    0.94658   1.00
C4       0.17062    0.79466    0.96021   1.00
C3       0.18072    0.86844    0.93047   1.00
C3       0.24020    0.81209    0.96026   1.00
C3       0.07428    0.80859    0.94925   1.00
C3       0.12667    0.74515    0.97465   1.00
C2       0.08463    0.88325    0.92029   1.00
C2       0.22280    0.73462    0.98858   1.00
C3       0.15250    0.89768    0.91775   1.00
C3       0.26548    0.78245    0.97392   1.00
C3       0.04635    0.83760    0.93602   1.00
C3       0.15376    0.71807    0.98885   1.00
H1       0.22971    0.88084    0.92746   1.00
H1       0.27466    0.84714    0.95045   1.00
C5       0.03379    0.76429    0.96506   1.00
C5       0.05610    0.72333    0.97498   1.00
H1       0.18236    0.93000    0.90645   1.00
H1       0.31614    0.79657    0.97313   1.00
H1       -0.00362   0.82475    0.93777   1.00
H1       0.12257    0.68600    0.99991   1.00
O3       -0.02811   0.75875    0.96972   1.00
O3       0.01068    0.66645    0.98591   1.00
Si1      -0.03259   0.80667    0.98746   1.00
Si1      -0.02029   0.59139    0.97548   1.00
C6       -0.11819   0.78465    0.98325   1.00
C6       -0.02312   0.77511    1.01095   1.00
C6       0.02341    0.89463    0.98350   1.00
C6       0.00819    0.58626    0.95092   1.00
C6       0.00254    0.54705    0.99269   1.00
C6       -0.10979   0.55330    0.97574   1.00
C6       -0.13851   0.78614    0.96059   1.00
H2       -0.14586   0.73095    0.98762   1.00
C6       -0.15181   0.81937    0.99565   1.00
H2       -0.04028   0.72193    1.00732   1.00
C6       0.05033    0.80474    1.01988   1.00
C6       -0.06824   0.77300    1.02923   1.00
H2       0.01421    0.90076    0.96757   1.00
C6       0.00908    0.94556    0.99569   1.00
C6       0.10244    0.92457    0.98575   1.00
C6       -0.00120   0.62766    0.93348   1.00
C6       0.08118    0.59584    0.94812   1.00
H2       -0.02566   0.53279    0.94703   1.00
H2       0.05773    0.57114    0.99099   1.00
C6       -0.00966   0.55500    1.01566   1.00
C6       -0.02689   0.46913    0.98887   1.00
H2       -0.12409   0.53337    0.99113   1.00
C6       -0.13897   0.60225    0.97299   1.00
C6       -0.15207   0.49143    0.96124   1.00
H2       -0.12692   0.75394    0.95099   1.00
H2       -0.11152   0.83791    0.95446   1.00
H2       -0.19324   0.76692    0.95913   1.00
H2       -0.20597   0.78314    0.99805   1.00
H2       -0.12869   0.83721    1.01047   1.00
H2       -0.14908   0.86295    0.98767   1.00
H2       0.05098    0.77170    1.03188   1.00
H2       0.08677    0.80834    1.00850   1.00
H2       0.06849    0.85515    1.02647   1.00
H2       -0.12241   0.74412    1.02549   1.00
H2       -0.06130   0.74763    1.04238   1.00
H2       -0.05520   0.82439    1.03392   1.00
H2       0.00572    0.93507    1.01195   1.00
H2       0.04892    0.99865    0.99336   1.00
H2       -0.03782   0.94311    0.99071   1.00
H2       0.11963    0.93917    1.00136   1.00
H2       0.11936    0.88967    0.98098   1.00
H2       0.12999    0.97045    0.97644   1.00
H2       0.03994    0.68054    0.93327   1.00
H2       -0.00096   0.60576    0.91872   1.00
H2       -0.04934   0.62725    0.93466   1.00
H2       0.08751    0.58177    0.93273   1.00
H2       0.12124    0.64840    0.95044   1.00
H2       0.09039    0.56343    0.95833   1.00
H2       0.01643    0.53564    1.02522   1.00
H2       0.01072    0.60851    1.01975   1.00
H2       -0.06369   0.52716    1.01960   1.00
H2       -0.01879   0.45884    0.97326   1.00
H2       -0.00148   0.44956    0.99865   1.00
H2       -0.08141   0.43995    0.99218   1.00
H2       -0.12574   0.62771    0.95829   1.00
H2       -0.19442   0.57529    0.97454   1.00
H2       -0.11856   0.64132    0.98465   1.00
H2       -0.20635   0.46603    0.96501   1.00
H2       -0.14658   0.50772    0.94541   1.00
H2       -0.13661   0.45306    0.96248   1.00
C4       0.14173    0.31364    0.44873   1.00
C4       0.16965    0.37181    0.46180   1.00
C3       0.17132    0.27177    0.44598   1.00
C3       0.23310    0.39751    0.47198   1.00
C3       0.08143    0.29650    0.43745   1.00
C3       0.13249    0.40659    0.46505   1.00
C2       0.08405    0.19889    0.42124   1.00
C2       0.22338    0.49067    0.48763   1.00
C3       0.14354    0.21620    0.43254   1.00
C3       0.25896    0.45491    0.48469   1.00
C3       0.05348    0.23948    0.42426   1.00
C3       0.16081    0.46605    0.47722   1.00
H1       0.21379    0.28027    0.45373   1.00
H1       0.26260    0.37555    0.47036   1.00
C5       0.04928    0.33625    0.43950   1.00
C5       0.06760    0.38233    0.45601   1.00
H1       0.16744    0.18805    0.43107   1.00
H1       0.30483    0.47084    0.49179   1.00
H1       0.00915    0.22667    0.41670   1.00
H1       0.13564    0.49287    0.47835   1.00
O3       -0.00176   0.32672    0.42623   1.00
O3       0.02514    0.40654    0.46205   1.00
Si1      0.01685    0.37381    0.40587   1.00
Si1      -0.02407   0.37203    0.48171   1.00
C6       -0.06434   0.32921    0.39439   1.00
C6       0.03588    0.45602    0.41359   1.00
C6       0.07969    0.37130    0.39063   1.00
C6       -0.01847   0.30703    0.49491   1.00
C6       -0.00066   0.44173    0.49796   1.00
C6       -0.10855   0.34225    0.47370   1.00
C6       -0.09808   0.24958    0.39388   1.00
H2       -0.09566   0.33953    0.40478   1.00
C6       -0.07736   0.34965    0.37279   1.00
H2       0.00788    0.44534    0.42785   1.00
C6       0.11157    0.50948    0.41884   1.00
C6       0.00992    0.49560    0.40025   1.00
H2       0.06135    0.31662    0.38977   1.00
C6       0.08636    0.39654    0.36818   1.00
C6       0.15536    0.40593    0.39842   1.00
C6       -0.03106   0.24247    0.48275   1.00
C6       0.04427    0.32628    0.50902   1.00
H2       -0.06110   0.28883    0.50550   1.00
H2       0.05044    0.45518    0.50302   1.00
C6       0.00718    0.50790    0.48788   1.00
C6       -0.04427   0.42905    0.51756   1.00
H2       -0.11360   0.38773    0.47383   1.00
C6       -0.12597   0.31481    0.45154   1.00
C6       -0.16785   0.28848    0.48728   1.00
H2       -0.10150   0.22868    0.40904   1.00
H2       -0.06901   0.23375    0.38432   1.00
H2       -0.15012   0.22568    0.38797   1.00
H2       -0.12946   0.34057    0.37181   1.00
H2       -0.04308   0.40302    0.36921   1.00
H2       -0.07217   0.31941    0.36076   1.00
H2       0.11431    0.55220    0.42737   1.00
H2       0.13537    0.48785    0.42831   1.00
H2       0.14204    0.53027    0.40512   1.00
H2       -0.04520   0.46616    0.39810   1.00
H2       0.02047    0.54341    0.40747   1.00
H2       0.03480    0.50823    0.38542   1.00
H2       0.09324    0.44780    0.36753   1.00
H2       0.12952    0.39764    0.36035   1.00
H2       0.04183    0.36231    0.35928   1.00
H2       0.18447    0.45985    0.39438   1.00
H2       0.15952    0.40278    0.41470   1.00
H2       0.18143    0.38119    0.39157   1.00
H2       0.01474    0.25080    0.47485   1.00
H2       -0.04598   0.19930    0.49299   1.00
H2       -0.07176   0.22682    0.47164   1.00
H2       0.03570    0.28248    0.51822   1.00
H2       0.09092    0.34220    0.50047   1.00
H2       0.05322    0.36678    0.51967   1.00
H2       0.03278    0.55124    0.49824   1.00
H2       0.03835    0.52128    0.47416   1.00
H2       -0.04203   0.50249    0.48386   1.00
H2       -0.05074   0.38469    0.52597   1.00
H2       -0.01914   0.47285    0.52779   1.00
H2       -0.09463   0.42167    0.51400   1.00
H2       -0.12024   0.27026    0.44921   1.00
H2       -0.17798   0.30117    0.44740   1.00
H2       -0.09212   0.35408    0.44102   1.00
H2       -0.21691   0.28210    0.48244   1.00
H2       -0.17143   0.23860    0.48642   1.00
H2       -0.16126   0.30413    0.50314   1.00
C4       0.68419    0.81947    0.44782   1.00
C4       0.62732    0.79055    0.46139   1.00
C3       0.73831    0.80496    0.44868   1.00
C3       0.62198    0.74925    0.47828   1.00
C3       0.68823    0.86640    0.43267   1.00
C3       0.57228    0.80311    0.45802   1.00
C2       0.79911    0.88265    0.42047   1.00
C2       0.51133    0.73522    0.48840   1.00
C3       0.79439    0.83594    0.43546   1.00
C3       0.56531    0.72180    0.49131   1.00
C3       0.74461    0.89613    0.41924   1.00
C3       0.51703    0.77739    0.47183   1.00
H1       0.73846    0.77127    0.45888   1.00
H1       0.65929    0.73823    0.48169   1.00
C5       0.63580    0.88310    0.43098   1.00
C5       0.57287    0.84171    0.44103   1.00
H1       0.83225    0.82385    0.43689   1.00
H1       0.56394    0.69180    0.50319   1.00
H1       0.74588    0.92824    0.40809   1.00
H1       0.48018    0.79044    0.46995   1.00
O3       0.64522    0.93645    0.41874   1.00
O3       0.51493    0.84315    0.43523   1.00
Si1      0.67517    1.01256    0.42841   1.00
Si1      0.45942    0.78241    0.42068   1.00
C6       0.68627    1.05635    0.40531   1.00
C6       0.60967    1.01169    0.44309   1.00
C6       0.75357    1.04223    0.44116   1.00
C6       0.47478    0.71585    0.41374   1.00
C6       0.38373    0.74877    0.43483   1.00
C6       0.44941    0.82138    0.39885   1.00
C6       0.72279    1.03940    0.38795   1.00
H2       0.63377    1.03588    0.40016   1.00
C6       0.71884    1.13596    0.40484   1.00
H2       0.56405    0.97053    0.43601   1.00
C6       0.60484    0.99240    0.46606   1.00
C6       0.60012    1.07551    0.44246   1.00
H2       0.78286    1.03084    0.43025   1.00
C6       0.79690    1.12068    0.44546   1.00
C6       0.75546    1.00822    0.46175   1.00
C6       0.54310    0.73525    0.40262   1.00
C6       0.46355    0.65996    0.42972   1.00
H2       0.43485    0.68786    0.40255   1.00
H2       0.39243    0.72291    0.44746   1.00
C6       0.36778    0.80201    0.44481   1.00
C6       0.31650    0.69436    0.42427   1.00
H2       0.41424    0.83852    0.40361   1.00
C6       0.51419    0.88707    0.39129   1.00
C6       0.41665    0.77603    0.37960   1.00
H2       0.69688    0.98476    0.38478   1.00
H2       0.77567    1.05592    0.39193   1.00
H2       0.72295    1.06452    0.37377   1.00
H2       0.69614    1.15069    0.39262   1.00
H2       0.71140    1.15651    0.41888   1.00
H2       0.77362    1.16206    0.40187   1.00
H2       0.55502    0.97960    0.47225   1.00
H2       0.61036    0.94787    0.46848   1.00
H2       0.64354    1.03472    0.47497   1.00
H2       0.59275    1.08758    0.42697   1.00
H2       0.55479    1.06646    0.45093   1.00
H2       0.64393    1.12004    0.44912   1.00
H2       0.76688    1.13891    0.45347   1.00
H2       0.84210    1.13368    0.45462   1.00
H2       0.81640    1.14951    0.43150   1.00
H2       0.74564    1.03187    0.47476   1.00
H2       0.71892    0.95415    0.46248   1.00
H2       0.80588    1.01383    0.46400   1.00
H2       0.58501    0.75028    0.41326   1.00
H2       0.53827    0.69164    0.39408   1.00
H2       0.55755    0.77661    0.39182   1.00
H2       0.46567    0.61765    0.42244   1.00
H2       0.50235    0.67952    0.44151   1.00
H2       0.41369    0.63789    0.43697   1.00
H2       0.32673    0.77712    0.45595   1.00
H2       0.41207    0.84151    0.45292   1.00
H2       0.35196    0.82687    0.43363   1.00
H2       0.32226    0.65376    0.41734   1.00
H2       0.27519    0.67019    0.43536   1.00
H2       0.30020    0.71740    0.41260   1.00
H2       0.55469    0.87708    0.38676   1.00
H2       0.50274    0.91022    0.37846   1.00
H2       0.53392    0.92481    0.40333   1.00
H2       0.40369    0.80312    0.36831   1.00
H2       0.45152    0.76213    0.37244   1.00
H2       0.36952    0.72927    0.38325   1.00
C4       0.17599    -0.13698   0.44893   1.00
C4       0.20515    -0.16556   0.46218   1.00
C3       0.12921    -0.11643   0.45543   1.00
C3       0.18578    -0.18216   0.48280   1.00
C3       0.19342    -0.12924   0.42791   1.00
C3       0.25675    -0.17835   0.45458   1.00
C2       0.11668    -0.08278   0.42101   1.00
C2       0.26545    -0.22465   0.48786   1.00
C3       0.10005    -0.09043   0.44185   1.00
C3       0.21553    -0.21030   0.49535   1.00
C3       0.16443    -0.10172   0.41452   1.00
C3       0.28397    -0.20942   0.46724   1.00
H1       0.11513    -0.11952   0.47024   1.00
H1       0.14920    -0.17469   0.48927   1.00
C5       0.23992    -0.14877   0.42042   1.00
C5       0.28050    -0.16068   0.43438   1.00
H1       0.06613    -0.07687   0.44740   1.00
H1       0.19993    -0.22072   0.51018   1.00
H1       0.17885    -0.09471   0.39959   1.00
H1       0.31765    -0.22225   0.46121   1.00
O3       0.24785    -0.15196   0.39980   1.00
O3       0.33901    -0.15990   0.42797   1.00
Si1      0.20273    -0.22407   0.38780   1.00
Si1      0.41271    -0.09172   0.43198   1.00
C6       0.22670    -0.19156   0.36298   1.00
C6       0.23589    -0.27734   0.39428   1.00
C6       0.11405    -0.26032   0.39151   1.00
C6       0.41428    -0.02297   0.44518   1.00
C6       0.45735    -0.12285   0.44597   1.00
C6       0.45307    -0.06403   0.40825   1.00
C6       0.22352    -0.12542   0.35812   1.00
H2       0.28083    -0.17578   0.36274   1.00
C6       0.19494    -0.23884   0.34396   1.00
H2       0.28835    -0.24031   0.39837   1.00
C6       0.20533    -0.32533   0.41310   1.00
C6       0.24133    -0.32288   0.37736   1.00
H2       0.10667    -0.21677   0.38892   1.00
C6       0.06572    -0.31685   0.37619   1.00
C6       0.08230    -0.29011   0.41287   1.00
C6       0.37207    0.00854    0.43633   1.00
C6       0.40222    -0.02826   0.46867   1.00
H2       0.46753    0.01695    0.44364   1.00
H2       0.43173    -0.13584   0.46066   1.00
C6       0.45232    -0.19037   0.43800   1.00
C6       0.53450    -0.07234   0.45034   1.00
H2       0.47472    -0.09682   0.40536   1.00
C6       0.40560    -0.07538   0.38977   1.00
C6       0.51374    0.01097    0.40645   1.00
H2       0.25381    -0.08459   0.36886   1.00
H2       0.17113    -0.13524   0.35865   1.00
H2       0.24403    -0.10576   0.34304   1.00
H2       0.23255    -0.22234   0.33174   1.00
H2       0.17820    -0.29203   0.34711   1.00
H2       0.15118    -0.23669   0.33788   1.00
H2       0.23904    -0.34419   0.41803   1.00
H2       0.19943    -0.29903   0.42608   1.00
H2       0.15588    -0.36961   0.40955   1.00
H2       0.27108    -0.29234   0.36445   1.00
H2       0.26741    -0.34935   0.38293   1.00
H2       0.19088    -0.36161   0.37208   1.00
H2       0.07783    -0.35778   0.37524   1.00
H2       0.01200    -0.33962   0.38048   1.00
H2       0.06912    -0.29589   0.36113   1.00
H2       0.06903    -0.34332   0.41450   1.00
H2       0.11557    -0.26243   0.42542   1.00
H2       0.03535    -0.28825   0.41499   1.00
H2       0.31874    -0.02033   0.44088   1.00
H2       0.39205    0.06062    0.44188   1.00
H2       0.37415    0.01118    0.41984   1.00
H2       0.41424    0.02124    0.47496   1.00
H2       0.34951    -0.06405   0.47265   1.00
H2       0.43485    -0.04338   0.47658   1.00
H2       0.47151    -0.21169   0.44940   1.00
H2       0.39949    -0.22924   0.43490   1.00
H2       0.48185    -0.18213   0.42415   1.00
H2       0.54274    -0.02416   0.45658   1.00
H2       0.55394    -0.09412   0.46153   1.00
H2       0.56529    -0.06165   0.43663   1.00
H2       0.37862    -0.04700   0.39122   1.00
H2       0.43406    -0.06058   0.37552   1.00
H2       0.36776    -0.12908   0.38850   1.00
H2       0.54085    0.01857    0.39210   1.00
H2       0.49590    0.04774    0.40703   1.00
H2       0.55109    0.02336    0.41850   1.00
C4       0.31735    0.13643    0.05276   1.00
C4       0.37401    0.16384    0.03911   1.00
C3       0.27940    0.06642    0.05816   1.00
C3       0.39444    0.12316    0.02809   1.00
C3       0.29635    0.18086    0.06136   1.00
C3       0.41294    0.23590    0.03622   1.00
C2       0.20131    0.08439    0.07969   1.00
C2       0.48825    0.22304    0.01144   1.00
C3       0.22275    0.04100    0.07115   1.00
C3       0.45037    0.15195    0.01478   1.00
C3       0.23984    0.15444    0.07473   1.00
C3       0.46730    0.26364    0.02209   1.00
H1       0.29196    0.03187    0.05285   1.00
H1       0.36905    0.07139    0.02932   1.00
C5       0.33211    0.25143    0.05660   1.00
C5       0.39715    0.27989    0.04729   1.00
H1       0.19696    -0.01020   0.07439   1.00
H1       0.46316    0.12007    0.00735   1.00
H1       0.22653    0.18723    0.08122   1.00
H1       0.49189    0.31487    0.01923   1.00
O3       0.30517    0.29182    0.06212   1.00
O3       0.44168    0.34945    0.04780   1.00
Si1      0.25779    0.30480    0.04612   1.00
Si1      0.50350    0.38008    0.06437   1.00
C6       0.23103    0.34714    0.06307   1.00
C6       0.31219    0.36073    0.02725   1.00
C6       0.18783    0.22867    0.03693   1.00
C6       0.51225    0.32218    0.08033   1.00
C6       0.57671    0.42393    0.04925   1.00
C6       0.49524    0.44060    0.07903   1.00
C6       0.20506    0.31239    0.08428   1.00
H2       0.27859    0.39435    0.06614   1.00
C6       0.17887    0.36980    0.05627   1.00
H2       0.36084    0.38743    0.03525   1.00
C6       0.32587    0.32942    0.00789   1.00
C6       0.29858    0.41781    0.01914   1.00
H2       0.16673    0.19942    0.05086   1.00
C6       0.12826    0.23413    0.02671   1.00
C6       0.20069    0.18178    0.02215   1.00
C6       0.45005    0.27308    0.09382   1.00
C6       0.54203    0.27825    0.07150   1.00
H2       0.55142    0.35628    0.09099   1.00
H2       0.58027    0.38338    0.04142   1.00
C6       0.57328    0.46986    0.03206   1.00
C6       0.64633    0.46792    0.06037   1.00
H2       0.51816    0.48641    0.06963   1.00
C6       0.42109    0.42524    0.08316   1.00
C6       0.53324    0.46230    0.09991   1.00
H2       0.24314    0.30413    0.09191   1.00
H2       0.15833    0.26307    0.08282   1.00
H2       0.19448    0.34432    0.09437   1.00
H2       0.19014    0.41709    0.06396   1.00
H2       0.18012    0.37889    0.04004   1.00
H2       0.12642    0.33217    0.06023   1.00
H2       0.37051    0.36811    -0.00032   1.00
H2       0.33657    0.28889    0.01162   1.00
H2       0.28260    0.30928    -0.00251   1.00
H2       0.29808    0.44978    0.03145   1.00
H2       0.33876    0.45209    0.00871   1.00
H2       0.25020    0.39593    0.01098   1.00
H2       0.14724    0.27196    0.01455   1.00
H2       0.08956    0.18549    0.02023   1.00
H2       0.10117    0.24755    0.03770   1.00
H2       0.20264    0.19671    0.00631   1.00
H2       0.24760    0.18163    0.02522   1.00
H2       0.15924    0.12895    0.02346   1.00
H2       0.41350    0.22800    0.08545   1.00
H2       0.46697    0.25521    0.10678   1.00
H2       0.42330    0.29792    0.09990   1.00
H2       0.55322    0.25257    0.08370   1.00
H2       0.50663    0.23870    0.06125   1.00
H2       0.58992    0.30924    0.06345   1.00
H2       0.61571    0.48541    0.02146   1.00
H2       0.52639    0.44238    0.02321   1.00
H2       0.57591    0.51598    0.03809   1.00
H2       0.65411    0.43916    0.07232   1.00
H2       0.68871    0.48433    0.04970   1.00
H2       0.64985    0.51372    0.06705   1.00
H2       0.39163    0.37857    0.09190   1.00
H2       0.42057    0.46701    0.09129   1.00
H2       0.39484    0.41926    0.06887   1.00
H2       0.53285    0.50704    0.10599   1.00
H2       0.50912    0.42150    0.11113   1.00
H2       0.58657    0.47603    0.09849   1.00
C4       0.81920    0.68363    0.05240   1.00
C4       0.79020    0.62685    0.03879   1.00
C3       0.79735    0.73236    0.05364   1.00
C3       0.74087    0.61662    0.02382   1.00
C3       0.87387    0.69331    0.06535   1.00
C3       0.81111    0.57705    0.04010   1.00
C2       0.88276    0.79893    0.07960   1.00
C2       0.73511    0.51151    0.01153   1.00
C3       0.82846    0.78865    0.06677   1.00
C3       0.71359    0.56022    0.01068   1.00
C3       0.90374    0.74972    0.07876   1.00
C3       0.78517    0.52217    0.02616   1.00
H1       0.75802    0.72827    0.04508   1.00
H1       0.72362    0.65006    0.02193   1.00
C5       0.89815    0.64643    0.06487   1.00
C5       0.85821    0.58251    0.05518   1.00
H1       0.81082    0.82250    0.06690   1.00
H1       0.67763    0.55513    0.00027   1.00
H1       0.94163    0.75496    0.08836   1.00
H1       0.80388    0.48939    0.02645   1.00
O3       0.95775    0.66188    0.07478   1.00
O3       0.86880    0.52868    0.05934   1.00
Si1      1.03001    0.69899    0.06248   1.00
Si1      0.81754    0.46964    0.07510   1.00
C6       1.08374    0.71498    0.08364   1.00
C6       1.03091    0.63758    0.04625   1.00
C6       1.04681    0.77564    0.05053   1.00
C6       0.74887    0.47594    0.08544   1.00
C6       0.78557    0.39471    0.06064   1.00
C6       0.86819    0.46531    0.09467   1.00
C6       1.06865    0.74722    0.10258   1.00
H2       1.07052    0.66354    0.08831   1.00
C6       1.16342    0.75510    0.08128   1.00
H2       0.99601    0.59006    0.05397   1.00
C6       1.00215    0.63043    0.02426   1.00
C6       1.09906    0.63645    0.04368   1.00
H2       1.03581    0.80173    0.06263   1.00
C6       1.12210    0.82559    0.04379   1.00
C6       1.00280    0.77300    0.03175   1.00
C6       0.76561    0.54221    0.09737   1.00
C6       0.68534    0.45845    0.07190   1.00
H2       0.72872    0.43539    0.09679   1.00
H2       0.75246    0.39953    0.04955   1.00
C6       0.83916    0.38619    0.04788   1.00
C6       0.74071    0.32544    0.07186   1.00
H2       0.88834    0.43452    0.08824   1.00
C6       0.93235    0.53389    0.10082   1.00
C6       0.83224    0.42944    0.11497   1.00
H2       1.01577    0.71641    0.10756   1.00
H2       1.07816    0.79854    0.09926   1.00
H2       1.10057    0.75061    0.11547   1.00
H2       1.18635    0.73585    0.09212   1.00
H2       1.18019    0.75049    0.06622   1.00
H2       1.18549    0.80945    0.08445   1.00
H2       0.99212    0.58229    0.01741   1.00
H2       0.95395    0.63012    0.02406   1.00
H2       1.03836    0.67160    0.01449   1.00
H2       1.11873    0.63124    0.05828   1.00
H2       1.09153    0.59293    0.03451   1.00
H2       1.13787    0.68269    0.03618   1.00
H2       1.14150    0.79970    0.03421   1.00
H2       1.12677    0.86926    0.03529   1.00
H2       1.15555    0.84749    0.05680   1.00
H2       1.02351    0.76656    0.01750   1.00
H2       0.95021    0.73229    0.03256   1.00
H2       1.00187    0.82073    0.03059   1.00
H2       0.77219    0.58304    0.08723   1.00
H2       0.72395    0.53249    0.10771   1.00
H2       0.81149    0.56088    0.10654   1.00
H2       0.64373    0.45535    0.08112   1.00
H2       0.69657    0.49691    0.06033   1.00
H2       0.66520    0.40912    0.06442   1.00
H2       0.81347    0.34471    0.03691   1.00
H2       0.87207    0.43226    0.03918   1.00
H2       0.87147    0.37459    0.05739   1.00
H2       0.70032    0.32596    0.08074   1.00
H2       0.71583    0.28380    0.06089   1.00
H2       0.77138    0.31319    0.08193   1.00
H2       0.91896    0.57052    0.10683   1.00
H2       0.96302    0.52618    0.11217   1.00
H2       0.96472    0.55675    0.08767   1.00
H2       0.86660    0.42078    0.12457   1.00
H2       0.81647    0.46038    0.12363   1.00
H2       0.78738    0.37970    0.11228   1.00
C4       -0.13699   0.17599    0.05107   1.00
C4       -0.16556   0.20515    0.03782   1.00
C3       -0.11652   0.12913    0.04457   1.00
C3       -0.18225   0.18571    0.01721   1.00
C3       -0.12916   0.19349    0.07208   1.00
C3       -0.17826   0.25681    0.04541   1.00
C2       -0.08278   0.11668    0.07899   1.00
C2       -0.22465   0.26545    0.01214   1.00
C3       -0.09052   0.09997    0.05815   1.00
C3       -0.21038   0.21546    0.00466   1.00
C3       -0.10164   0.16449    0.08547   1.00
C3       -0.20934   0.28404    0.03276   1.00
H1       -0.11968   0.11499    0.02977   1.00
H1       -0.17485   0.14908    0.01074   1.00
C5       -0.14860   0.24006    0.07957   1.00
C5       -0.16050   0.28063    0.06561   1.00
H1       -0.07703   0.06601    0.05260   1.00
H1       -0.22087   0.19982    -0.01017   1.00
H1       -0.09456   0.17897    0.10040   1.00
H1       -0.22210   0.31777    0.03878   1.00
O3       -0.15171   0.24806    0.10019   1.00
O3       -0.15965   0.33919    0.07200   1.00
Si1      -0.22378   0.20304    0.11221   1.00
Si1      -0.09143   0.41284    0.06796   1.00
C6       -0.19118   0.22707    0.13702   1.00
C6       -0.27702   0.23626    0.10574   1.00
C6       -0.26012   0.11434    0.10853   1.00
C6       -0.02277   0.41429    0.05475   1.00
C6       -0.12255   0.45749    0.05397   1.00
C6       -0.06364   0.45327    0.09168   1.00
C6       -0.12506   0.22384    0.14187   1.00
H2       -0.17535   0.28122    0.13725   1.00
C6       -0.23840   0.19541    0.15606   1.00
H2       -0.23997   0.28869    0.10163   1.00
C6       -0.32508   0.20566    0.08693   1.00
C6       -0.32246   0.24180    0.12267   1.00
H2       -0.21659   0.10691    0.11111   1.00
C6       -0.31662   0.06609    0.12387   1.00
C6       -0.29001   0.08253    0.08718   1.00
C6       0.00871    0.37206    0.06360   1.00
C6       -0.02815   0.40215    0.03126   1.00
H2       0.01720    0.46753    0.05627   1.00
H2       -0.13561   0.43181    0.03929   1.00
C6       -0.19001   0.45256    0.06196   1.00
C6       -0.07200   0.53462    0.04957   1.00
H2       -0.09637   0.47498    0.09457   1.00
C6       -0.07496   0.40586    0.11018   1.00
C6       0.01140    0.51390    0.09345   1.00
H2       -0.08426   0.25406    0.13111   1.00
H2       -0.13493   0.17142    0.14135   1.00
H2       -0.10533   0.24439    0.15694   1.00
H2       -0.22182   0.23307    0.16826   1.00
H2       -0.29159   0.17871    0.15292   1.00
H2       -0.23628   0.15165    0.16215   1.00
H2       -0.34391   0.23940    0.08200   1.00
H2       -0.29884   0.19969    0.07395   1.00
H2       -0.36937   0.15624    0.09050   1.00
H2       -0.29186   0.27158    0.13556   1.00
H2       -0.34891   0.26791    0.11709   1.00
H2       -0.36120   0.19139    0.12796   1.00
H2       -0.35752   0.07826    0.12482   1.00
H2       -0.33945   0.01236    0.11959   1.00
H2       -0.29561   0.06953    0.13892   1.00
H2       -0.34321   0.06930    0.08556   1.00
H2       -0.26235   0.11575    0.07461   1.00
H2       -0.28820   0.03554    0.08507   1.00
H2       -0.02021   0.31871    0.05906   1.00
H2       0.06076    0.39197    0.05803   1.00
H2       0.01141    0.37419    0.08009   1.00
H2       0.02131    0.41410    0.02496   1.00
H2       -0.06400   0.34943    0.02730   1.00
H2       -0.04326   0.43479    0.02334   1.00
H2       -0.21134   0.47174    0.05056   1.00
H2       -0.22891   0.39975    0.06507   1.00
H2       -0.18170   0.48214    0.07580   1.00
H2       -0.02386   0.54278    0.04333   1.00
H2       -0.09379   0.55405    0.03839   1.00
H2       -0.06124   0.56546    0.06327   1.00
H2       -0.04663   0.37882    0.10872   1.00
H2       -0.06009   0.43436    0.12441   1.00
H2       -0.12867   0.36805    0.11146   1.00
H2       0.01908    0.54107    0.10780   1.00
H2       0.04813    0.49601    0.09286   1.00
H2       0.02378    0.55121    0.08139   1.00
C4       0.53097    1.01972    0.88466   1.00
C4       0.50326    0.96155    0.87159   1.00
C3       0.60185    1.06210    0.88835   1.00
C3       0.54302    0.93637    0.86239   1.00
C3       0.48568    1.03633    0.89494   1.00
C3       0.43191    0.92622    0.86732   1.00
C2       0.58275    1.13444    0.91209   1.00
C2       0.44316    0.84266    0.84570   1.00
C3       0.62705    1.11765    0.90177   1.00
C3       0.51394    0.87895    0.84965   1.00
C3       0.51220    1.09334    0.90812   1.00
C3       0.40317    0.86676    0.85514   1.00
H1       0.63726    1.05399    0.88135   1.00
H1       0.59420    0.95874    0.86477   1.00
C5       0.41423    0.99605    0.89191   1.00
C5       0.38947    0.94995    0.87534   1.00
H1       0.67878    1.14619    0.90396   1.00
H1       0.54528    0.86341    0.84327   1.00
H1       0.47923    1.10576    0.91495   1.00
H1       0.35143    0.83955    0.85328   1.00
O3       0.37036    1.00511    0.90429   1.00
O3       0.32376    0.92519    0.86828   1.00
Si1      0.33894    0.95795    0.92452   1.00
Si1      0.31185    0.95940    0.84804   1.00
C6       0.29996    1.00195    0.93486   1.00
C6       0.27755    0.87553    0.91640   1.00
C6       0.40204    0.96110    0.94095   1.00
C6       0.38421    1.02479    0.83558   1.00
C6       0.26867    0.88960    0.83160   1.00
C6       0.25539    0.98846    0.85472   1.00
C6       0.34519    1.08164    0.93549   1.00
H2       0.25994    0.99127    0.92380   1.00
C6       0.26309    0.98126    0.95599   1.00
H2       0.26237    0.88600    0.90173   1.00
C6       0.30120    0.82258    0.91209   1.00
C6       0.21000    0.83548    0.92886   1.00
H2       0.43786    1.01587    0.94197   1.00
C6       0.38003    0.93579    0.96326   1.00
C6       0.44480    0.92706    0.93428   1.00
C6       0.43381    1.08953    0.84809   1.00
C6       0.43030    1.00608    0.82249   1.00
H2       0.36123    1.04266    0.82436   1.00
H2       0.30738    0.87659    0.82739   1.00
C6       0.20912    0.82316    0.84119   1.00
C6       0.24066    0.90191    0.81132   1.00
H2       0.20512    0.94270    0.85407   1.00
C6       0.26163    1.01585    0.87677   1.00
C6       0.25153    1.04192    0.84054   1.00
H2       0.36497    1.10262    0.92048   1.00
H2       0.38856    1.09783    0.94573   1.00
H2       0.31577    1.10513    0.94062   1.00
H2       0.21968    0.98986    0.95607   1.00
H2       0.24386    0.92796    0.95972   1.00
H2       0.29643    1.01169    0.96839   1.00
H2       0.26285    0.77968    0.90322   1.00
H2       0.34811    0.84456    0.90329   1.00
H2       0.30889    0.80197    0.92618   1.00
H2       0.18360    0.86451    0.93023   1.00
H2       0.17421    0.78754    0.92140   1.00
H2       0.22002    0.82302    0.94401   1.00
H2       0.33587    0.88434    0.96355   1.00
H2       0.42099    0.93511    0.97188   1.00
H2       0.36795    0.96973    0.97162   1.00
H2       0.41975    0.87316    0.93836   1.00
H2       0.45473    0.93029    0.91814   1.00
H2       0.49445    0.95219    0.94185   1.00
H2       0.47021    1.08162    0.85676   1.00
H2       0.46341    1.13278    0.83798   1.00
H2       0.40674    1.10484    0.85855   1.00
H2       0.46673    1.05003    0.81356   1.00
H2       0.45992    0.99055    0.83177   1.00
H2       0.40073    0.96548    0.81165   1.00
H2       0.19340    0.77988    0.83092   1.00
H2       0.22489    0.81002    0.85536   1.00
H2       0.16447    0.82810    0.84433   1.00
H2       0.27962    0.94643    0.80322   1.00
H2       0.22398    0.85816    0.80117   1.00
H2       0.19688    0.90882    0.81400   1.00
H2       0.31129    1.06067    0.87962   1.00
H2       0.22234    1.02903    0.88005   1.00
H2       0.25487    0.97672    0.88755   1.00
H2       0.20786    1.04783    0.84450   1.00
H2       0.29738    1.09201    0.84180   1.00
H2       0.24514    1.02627    0.82468   1.00
C4       -0.01397   0.51034    0.88680   1.00
C4       0.04281    0.53935    0.87319   1.00
C3       -0.01665   0.47380    0.90461   1.00
C3       0.09976    0.52944    0.87503   1.00
C3       -0.07204   0.51702    0.88234   1.00
C3       0.04340    0.58082    0.85680   1.00
C2       -0.13205   0.45030    0.91301   1.00
C2       0.15495    0.59849    0.84478   1.00
C3       -0.07418   0.44427    0.91729   1.00
C3       0.15460    0.55871    0.86133   1.00
C3       -0.12907   0.48794    0.89554   1.00
C3       0.09776    0.60742    0.84267   1.00
H1       0.02322    0.46778    0.90892   1.00
H1       0.10288    0.50034    0.88629   1.00
C5       -0.07265   0.55295    0.86478   1.00
C5       -0.01046   0.59507    0.85447   1.00
H1       -0.07340   0.41800    0.92989   1.00
H1       0.19468    0.55029    0.86351   1.00
H1       -0.16959   0.49477    0.89245   1.00
H1       0.09533    0.63335    0.83030   1.00
O3       -0.13249   0.54963    0.85873   1.00
O3       -0.00464   0.64535    0.84136   1.00
Si1      -0.18151   0.49246    0.84214   1.00
Si1      0.03272    0.72410    0.84932   1.00
C6       -0.25115   0.50674    0.84400   1.00
C6       -0.14119   0.51831    0.81832   1.00
C6       -0.20507   0.40836    0.84929   1.00
C6       0.06669    0.74170    0.87416   1.00
C6       0.09886    0.76722    0.83171   1.00
C6       -0.02583   0.75316    0.84628   1.00
C6       -0.27470   0.51082    0.86607   1.00
H2       -0.22984   0.55817    0.83783   1.00
C6       -0.31867   0.46181    0.83179   1.00
H2       -0.10955   0.57334    0.82033   1.00
C6       -0.09131   0.49289    0.81170   1.00
C6       -0.18612   0.50854    0.79919   1.00
H2       -0.22103   0.40652    0.86504   1.00
C6       -0.26746   0.34883    0.83807   1.00
C6       -0.14983   0.38568    0.84943   1.00
C6       0.01745    0.70338    0.89221   1.00
C6       0.13449    0.74147    0.87870   1.00
H2       0.08102    0.79511    0.87606   1.00
H2       0.13436    0.74922    0.83512   1.00
C6       0.07934    0.74918    0.80885   1.00
C6       0.14075    0.84678    0.83307   1.00
H2       -0.02171   0.76684    0.83025   1.00
C6       -0.10250   0.69927    0.84952   1.00
C6       -0.01287   0.81816    0.85834   1.00
H2       -0.23265   0.54945    0.87509   1.00
H2       -0.29498   0.46196    0.87391   1.00
H2       -0.31437   0.52491    0.86591   1.00
H2       -0.34167   0.49243    0.82743   1.00
H2       -0.31054   0.44058    0.81800   1.00
H2       -0.35688   0.41928    0.84077   1.00
H2       -0.05928   0.52335    0.79906   1.00
H2       -0.05669   0.49759    0.82385   1.00
H2       -0.11920   0.43984    0.80672   1.00
H2       -0.21621   0.53364    0.80108   1.00
H2       -0.15460   0.53129    0.78571   1.00
H2       -0.22036   0.45452    0.79600   1.00
H2       -0.26064   0.35361    0.82164   1.00
H2       -0.27532   0.29878    0.84246   1.00
H2       -0.31471   0.34753    0.84197   1.00
H2       -0.14488   0.36686    0.83465   1.00
H2       -0.09948   0.42605    0.85371   1.00
H2       -0.16410   0.34420    0.86030   1.00
H2       0.01123    0.65294    0.89451   1.00
H2       0.03773    0.73167    0.90635   1.00
H2       -0.03282   0.69757    0.89001   1.00
H2       0.15382    0.76250    0.89377   1.00
H2       0.12751    0.69033    0.87846   1.00
H2       0.17489    0.77294    0.86802   1.00
H2       0.12527    0.76923    0.79949   1.00
H2       0.05080    0.69404    0.80646   1.00
H2       0.04866    0.77046    0.80316   1.00
H2       0.15839    0.86415    0.84849   1.00
H2       0.18616    0.86688    0.82346   1.00
H2       0.11079    0.86964    0.82796   1.00
H2       -0.11291   0.67941    0.86496   1.00
H2       -0.13558   0.72031    0.84619   1.00
H2       -0.11722   0.65657    0.83929   1.00
H2       -0.04610   0.83691    0.85286   1.00
H2       -0.02288   0.80740    0.87452   1.00
H2       0.03939    0.85984    0.85655   1.00
C4       0.49078    0.47662    0.88672   1.00
C4       0.46160    0.50412    0.87308   1.00
C3       0.53852    0.51546    0.90207   1.00
C3       0.48184    0.57441    0.87221   1.00
C3       0.47234    0.40666    0.88485   1.00
C3       0.40908    0.45937    0.85950   1.00
C2       0.55002    0.41809    0.91305   1.00
C2       0.40119    0.55600    0.84474   1.00
C3       0.56765    0.48716    0.91480   1.00
C3       0.45205    0.59958    0.85857   1.00
C3       0.50133    0.37874    0.89809   1.00
C3       0.38179    0.48619    0.84528   1.00
H1       0.55337    0.56540    0.90450   1.00
H1       0.51911    0.60945    0.88137   1.00
C5       0.42485    0.36498    0.86982   1.00
C5       0.38446    0.38824    0.86004   1.00
H1       0.60228    0.51786    0.92554   1.00
H1       0.46830    0.65079    0.85874   1.00
H1       0.48620    0.32802    0.89694   1.00
H1       0.34738    0.45415    0.83480   1.00
O3       0.41584    0.30126    0.86582   1.00
O3       0.32522    0.34287    0.85004   1.00
Si1      0.45964    0.29164    0.84775   1.00
Si1      0.25220    0.31643    0.86138   1.00
C6       0.43481    0.20586    0.85298   1.00
C6       0.42574    0.29924    0.82446   1.00
C6       0.54860    0.34526    0.85043   1.00
C6       0.25228    0.34956    0.88567   1.00
C6       0.20742    0.33926    0.84434   1.00
C6       0.21084    0.22675    0.86230   1.00
C6       0.43877    0.18849    0.87578   1.00
H2       0.38050    0.17948    0.84932   1.00
C6       0.46519    0.16791    0.84063   1.00
H2       0.37364    0.28482    0.82870   1.00
C6       0.45669    0.37152    0.81458   1.00
C6       0.41877    0.25041    0.80667   1.00
H2       0.55657    0.33800    0.86638   1.00
C6       0.59571    0.32628    0.83797   1.00
C6       0.58114    0.42425    0.84717   1.00
C6       0.29485    0.34065    0.90284   1.00
C6       0.26547    0.42414    0.88768   1.00
H2       0.19917    0.31814    0.89033   1.00
H2       0.23374    0.39477    0.84530   1.00
C6       0.21109    0.32288    0.82145   1.00
C6       0.13067    0.31353    0.84909   1.00
H2       0.18840    0.21072    0.84724   1.00
C6       0.25761    0.19498    0.86493   1.00
C6       0.15077    0.18874    0.87772   1.00
H2       0.40939    0.20336    0.88553   1.00
H2       0.49143    0.21453    0.88121   1.00
H2       0.41769    0.13370    0.87793   1.00
H2       0.42697    0.11393    0.83906   1.00
H2       0.48140    0.18841    0.82546   1.00
H2       0.50901    0.16983    0.84821   1.00
H2       0.42268    0.37193    0.80287   1.00
H2       0.46364    0.41034    0.82556   1.00
H2       0.50567    0.38664    0.80740   1.00
H2       0.38865    0.19701    0.81116   1.00
H2       0.39236    0.25671    0.79367   1.00
H2       0.46875    0.26055    0.80143   1.00
H2       0.58285    0.32086    0.82186   1.00
H2       0.64968    0.36480    0.83947   1.00
H2       0.59189    0.27923    0.84343   1.00
H2       0.59379    0.43873    0.83129   1.00
H2       0.54864    0.44396    0.85205   1.00
H2       0.62857    0.45163    0.85581   1.00
H2       0.34836    0.38018    0.90221   1.00
H2       0.27577    0.34422    0.91776   1.00
H2       0.29202    0.29128    0.90213   1.00
H2       0.25439    0.43366    0.90310   1.00
H2       0.31821    0.46220    0.88453   1.00
H2       0.23274    0.43355    0.87766   1.00
H2       0.19199    0.34902    0.81182   1.00
H2       0.26358    0.34051    0.81672   1.00
H2       0.18082    0.26839    0.81828   1.00
H2       0.12340    0.32469    0.86469   1.00
H2       0.11130    0.33894    0.83924   1.00
H2       0.09917    0.25869    0.84655   1.00
H2       0.28529    0.20953    0.87927   1.00
H2       0.22849    0.13936    0.86415   1.00
H2       0.29486    0.21217    0.85276   1.00
H2       0.12289    0.13390    0.87469   1.00
H2       0.16932    0.19599    0.89333   1.00
H2       0.11390    0.20619    0.87664   1.00
C4       0.35222    0.19817    0.28167   1.00
C4       0.29407    0.17010    0.29475   1.00
C3       0.38233    0.26476    0.27329   1.00
C3       0.25654    0.20334    0.29926   1.00
C3       0.38173    0.15744    0.27632   1.00
C3       0.27177    0.10529    0.30398   1.00
C2       0.46770    0.24995    0.25453   1.00
C2       0.17608    0.10928    0.32100   1.00
C3       0.43822    0.28984    0.26001   1.00
C3       0.19955    0.17409    0.31217   1.00
C3       0.43891    0.18415    0.26319   1.00
C3       0.21250    0.07541    0.31624   1.00
H1       0.36467    0.29708    0.27665   1.00
H1       0.26923    0.24957    0.29321   1.00
C5       0.35412    0.09042    0.28418   1.00
C5       0.30827    0.07032    0.30079   1.00
H1       0.45753    0.33822    0.25430   1.00
H1       0.17474    0.20073    0.31503   1.00
H1       0.46070    0.15505    0.25994   1.00
H1       0.19468    0.02713    0.32168   1.00
O3       0.37517    0.04747    0.27641   1.00
O3       0.29604    0.01483    0.31257   1.00
Si1      0.33220    -0.00488   0.25803   1.00
Si1      0.33496    0.02808    0.33434   1.00
C6       0.39026    -0.03358   0.25299   1.00
C6       0.25569    -0.07043   0.26848   1.00
C6       0.32198    0.03633    0.23670   1.00
C6       0.38884    0.11326    0.34222   1.00
C6       0.26746    -0.01328   0.35163   1.00
C6       0.38050    -0.01620   0.33387   1.00
C6       0.46705    0.02331    0.25112   1.00
H2       0.38718    -0.06142   0.26685   1.00
C6       0.37764    -0.08446   0.23514   1.00
H2       0.26973    -0.06983   0.28434   1.00
C6       0.19181    -0.06099   0.26874   1.00
C6       0.22845    -0.14531   0.26104   1.00
H2       0.37368    0.07892    0.23441   1.00
C6       0.30089    -0.00426   0.21623   1.00
C6       0.27420    0.06801    0.23819   1.00
C6       0.44904    0.16149    0.32797   1.00
C6       0.35666    0.15615    0.35014   1.00
H2       0.41306    0.10678    0.35569   1.00
H2       0.24385    0.01854    0.35184   1.00
C6       0.20923    -0.08606   0.34536   1.00
C6       0.28615    -0.01881   0.37412   1.00
H2       0.34207    -0.06877   0.33737   1.00
C6       0.41055    -0.02005   0.31296   1.00
C6       0.43904    0.00416    0.34973   1.00
H2       0.48440    0.05572    0.26459   1.00
H2       0.47533    0.05588    0.23795   1.00
H2       0.50003    0.00114    0.24956   1.00
H2       0.39724    -0.11830   0.23919   1.00
H2       0.32398    -0.11638   0.23141   1.00
H2       0.40402    -0.05818   0.22126   1.00
H2       0.15317    -0.09707   0.27922   1.00
H2       0.20432    -0.01035   0.27384   1.00
H2       0.16838    -0.06990   0.25375   1.00
H2       0.26654    -0.16090   0.26304   1.00
H2       0.18379    -0.18154   0.26977   1.00
H2       0.21347    -0.15103   0.24509   1.00
H2       0.25486    -0.05388   0.21809   1.00
H2       0.29113    0.02327    0.20426   1.00
H2       0.34149    -0.01180   0.21038   1.00
H2       0.22126    0.03088    0.23462   1.00
H2       0.27432    0.08865    0.25302   1.00
H2       0.29062    0.10994    0.22736   1.00
H2       0.43242    0.18341    0.31610   1.00
H2       0.48883    0.20406    0.33659   1.00
H2       0.47287    0.13538    0.32077   1.00
H2       0.39569    0.20371    0.35705   1.00
H2       0.33332    0.17011    0.33803   1.00
H2       0.31835    0.12933    0.36183   1.00
H2       0.16478    -0.10250   0.35519   1.00
H2       0.19209    -0.08649   0.32984   1.00
H2       0.22532    -0.12404   0.34645   1.00
H2       0.32527    0.03039    0.38002   1.00
H2       0.24141    -0.03624   0.38390   1.00
H2       0.30415    -0.05523   0.37564   1.00
H2       0.44824    0.03020    0.30735   1.00
H2       0.43442    -0.05164   0.31371   1.00
H2       0.36997    -0.04318   0.30181   1.00
H2       0.45602    -0.03336   0.34996   1.00
H2       0.48329    0.05372    0.34618   1.00
H2       0.42231    0.00636    0.36508   1.00
C4       0.84190    0.64619    0.28231   1.00
C4       0.87285    0.70420    0.29544   1.00
C3       0.84638    0.58649    0.28537   1.00
C3       0.91644    0.71080    0.31183   1.00
C3       0.80515    0.64781    0.26493   1.00
C3       0.85977    0.75894    0.29219   1.00
C2       0.78074    0.53240    0.25452   1.00
C2       0.93473    0.82382    0.32101   1.00
C3       0.81700    0.53130    0.27181   1.00
C3       0.94603    0.76867    0.32439   1.00
C3       0.77479    0.59109    0.25163   1.00
C3       0.89241    0.81805    0.30447   1.00
H1       0.87093    0.58126    0.29759   1.00
H1       0.92831    0.67397    0.31505   1.00
C5       0.79871    0.70595    0.26099   1.00
C5       0.81474    0.75478    0.27660   1.00
H1       0.82233    0.48968    0.27472   1.00
H1       0.97665    0.77038    0.33612   1.00
H1       0.74698    0.59221    0.23954   1.00
H1       0.88598    0.85858    0.30114   1.00
O3       0.77335    0.71211    0.24260   1.00
O3       0.79089    0.80024    0.27572   1.00
Si1      0.82567    0.75361    0.22407   1.00
Si1      0.72417    0.78484    0.28916   1.00
C6       0.76338    0.73222    0.20503   1.00
C6       0.86616    0.84114    0.23006   1.00
C6       0.88134    0.72269    0.21808   1.00
C6       0.68728    0.71193    0.30494   1.00
C6       0.75398    0.85840    0.30415   1.00
C6       0.66269    0.78233    0.27227   1.00
C6       0.70719    0.65501    0.20373   1.00
H2       0.73682    0.75855    0.21021   1.00
C6       0.78433    0.75560    0.18248   1.00
H2       0.82907    0.84323    0.24016   1.00
C6       0.93459    0.87332    0.24223   1.00
C6       0.87868    0.89317    0.21266   1.00
H2       0.84648    0.66766    0.21733   1.00
C6       0.91835    0.74360    0.19703   1.00
C6       0.93925    0.73410    0.23343   1.00
C6       0.66296    0.64087    0.29489   1.00
C6       0.72383    0.71239    0.32516   1.00
H2       0.64074    0.71038    0.31010   1.00
H2       0.78901    0.85480    0.31476   1.00
C6       0.79733    0.92810    0.29292   1.00
C6       0.70042    0.86556    0.31729   1.00
H2       0.67868    0.83592    0.26975   1.00
C6       0.66071    0.75300    0.25073   1.00
C6       0.58685    0.74766    0.27963   1.00
H2       0.68127    0.63609    0.21825   1.00
H2       0.72908    0.62350    0.19928   1.00
H2       0.66787    0.64694    0.19267   1.00
H2       0.74656    0.76548    0.17532   1.00
H2       0.83360    0.80188    0.18120   1.00
H2       0.78649    0.71653    0.17332   1.00
H2       0.94648    0.92263    0.24862   1.00
H2       0.93207    0.84162    0.25498   1.00
H2       0.97715    0.88185    0.23250   1.00
H2       0.83128    0.88089    0.20493   1.00
H2       0.89923    0.94490    0.21860   1.00
H2       0.91507    0.89439    0.20155   1.00
H2       0.94554    0.79889    0.19508   1.00
H2       0.95525    0.72617    0.19524   1.00
H2       0.88251    0.72020    0.18461   1.00
H2       0.98572    0.78293    0.23104   1.00
H2       0.92492    0.73259    0.24918   1.00
H2       0.95269    0.69427    0.23149   1.00
H2       0.70479    0.63059    0.29305   1.00
H2       0.62458    0.60008    0.30436   1.00
H2       0.63980    0.63655    0.28009   1.00
H2       0.69043    0.66816    0.33450   1.00
H2       0.77012    0.71023    0.32250   1.00
H2       0.73686    0.75723    0.33440   1.00
H2       0.82300    0.96957    0.30389   1.00
H2       0.83719    0.92795    0.28361   1.00
H2       0.76600    0.94032    0.28316   1.00
H2       0.66895    0.81970    0.32619   1.00
H2       0.72610    0.90771    0.32806   1.00
H2       0.66704    0.87611    0.30789   1.00
H2       0.64771    0.69971    0.25125   1.00
H2       0.62411    0.75696    0.24085   1.00
H2       0.71036    0.78189    0.24358   1.00
H2       0.55600    0.75854    0.26917   1.00
H2       0.56391    0.69229    0.28056   1.00
H2       0.58263    0.76643    0.29447   1.00
C4       0.80409    0.15786    0.28230   1.00
C4       0.83120    0.12694    0.29542   1.00
C3       0.73861    0.15083    0.28486   1.00
C3       0.79326    0.08098    0.31125   1.00
C3       0.84380    0.19728    0.26544   1.00
C3       0.90008    0.14256    0.29275   1.00
C2       0.75157    0.21919    0.25453   1.00
C2       0.88920    0.06534    0.32100   1.00
C3       0.71288    0.18030    0.27130   1.00
C3       0.82163    0.05150    0.32382   1.00
C3       0.81744    0.22766    0.25216   1.00
C3       0.92675    0.11006    0.30501   1.00
H1       0.70779    0.12428    0.29669   1.00
H1       0.74378    0.06722    0.31404   1.00
C5       0.90970    0.20634    0.26202   1.00
C5       0.94183    0.18999    0.27776   1.00
H1       0.66498    0.17306    0.27384   1.00
H1       0.79197    0.01908    0.33514   1.00
H1       0.84726    0.25737    0.24046   1.00
H1       0.97467    0.11842    0.30207   1.00
O3       0.94298    0.23446    0.24404   1.00
O3       1.01156    0.21595    0.27754   1.00
Si1      0.93604    0.18487    0.22511   1.00
Si1      1.05977    0.28170    0.29176   1.00
C6       0.97759    0.24964    0.20678   1.00
C6       0.98466    0.14613    0.23118   1.00
C6       0.85069    0.12787    0.21814   1.00
C6       1.01995    0.31479    0.30750   1.00
C6       1.10360    0.25227    0.30687   1.00
C6       1.11948    0.34606    0.27570   1.00
C6       0.95432    0.30417    0.20568   1.00
H2       1.02982    0.27698    0.21251   1.00
C6       0.98344    0.23176    0.18413   1.00
H2       1.02198    0.18276    0.24179   1.00
C6       0.94885    0.07630    0.24265   1.00
C6       1.02732    0.13725    0.21401   1.00
H2       0.82900    0.16144    0.21747   1.00
C6       0.83811    0.09341    0.19676   1.00
C6       0.80371    0.06763    0.23277   1.00
C6       0.97271    0.33815    0.29727   1.00
C6       0.98222    0.27532    0.32721   1.00
H2       1.06343    0.36146    0.31328   1.00
H2       1.06435    0.21531    0.31697   1.00
C6       1.13327    0.21196    0.29557   1.00
C6       1.16188    0.30547    0.32079   1.00
H2       1.15860    0.33199    0.27336   1.00
C6       1.09409    0.34950    0.25399   1.00
C6       1.15774    0.42108    0.28384   1.00
H2       0.95881    0.32818    0.22041   1.00
H2       0.90132    0.28130    0.20071   1.00
H2       0.98596    0.34513    0.19511   1.00
H2       1.03137    0.27134    0.17757   1.00
H2       0.98235    0.18346    0.18252   1.00
H2       0.94266    0.22923    0.17466   1.00
H2       0.98661    0.06523    0.24923   1.00
H2       0.91760    0.07627    0.25519   1.00
H2       0.91692    0.03445    0.23241   1.00
H2       1.06221    0.18589    0.20684   1.00
H2       1.05909    0.11751    0.22004   1.00
H2       0.99416    0.10158    0.20242   1.00
H2       0.86791    0.06795    0.19483   1.00
H2       0.78439    0.05547    0.19434   1.00
H2       0.85090    0.13043    0.18466   1.00
H2       0.80808    0.02239    0.23011   1.00
H2       0.81439    0.08033    0.24869   1.00
H2       0.75025    0.05277    0.23036   1.00
H2       0.92144    0.29547    0.29479   1.00
H2       0.96776    0.37464    0.30696   1.00
H2       0.99275    0.36325    0.28277   1.00
H2       0.96891    0.30664    0.33667   1.00
H2       0.93494    0.22849    0.32390   1.00
H2       1.01397    0.26260    0.33659   1.00
H2       1.14901    0.18608    0.30648   1.00
H2       1.09512    0.17251    0.28572   1.00
H2       1.17756    0.24537    0.28633   1.00
H2       1.14507    0.33481    0.32977   1.00
H2       1.17831    0.27962    0.33150   1.00
H2       1.20644    0.34086    0.31193   1.00
H2       1.05259    0.36077    0.25430   1.00
H2       1.13517    0.38799    0.24465   1.00
H2       1.07561    0.30087    0.24639   1.00
H2       1.20027    0.45403    0.27389   1.00
H2       1.12382    0.44233    0.28467   1.00
H2       1.17924    0.42434    0.29887   1.00
C4       0.80522    0.65201    0.78008   1.00
C4       0.83205    0.70862    0.79374   1.00
C3       0.74745    0.63295    0.76754   1.00
C3       0.80023    0.74793    0.79758   1.00
C3       0.83689    0.61118    0.77899   1.00
C3       0.89424    0.72764    0.80420   1.00
C2       0.75204    0.53480    0.75359   1.00
C2       0.88873    0.82142    0.82194   1.00
C3       0.72132    0.57575    0.75475   1.00
C3       0.82809    0.80318    0.81115   1.00
C3       0.81053    0.55443    0.76570   1.00
C3       0.91990    0.78163    0.81845   1.00
H1       0.72279    0.66020    0.76729   1.00
H1       0.75567    0.73732    0.79074   1.00
C5       0.89486    0.62746    0.79111   1.00
C5       0.93021    0.69239    0.80054   1.00
H1       0.67911    0.56415    0.74614   1.00
H1       0.80317    0.83013    0.81319   1.00
H1       0.83491    0.52674    0.76466   1.00
H1       0.96207    0.79180    0.82677   1.00
O3       0.91822    0.58191    0.79257   1.00
O3       0.99639    0.71799    0.80729   1.00
Si1      0.89215    0.52677    0.81112   1.00
Si1      1.05896    0.77393    0.79335   1.00
C6       0.92884    0.47869    0.80232   1.00
C6       0.93248    0.57171    0.83345   1.00
C6       0.80249    0.47635    0.81262   1.00
C6       1.03877    0.80137    0.77061   1.00
C6       1.10211    0.84367    0.80980   1.00
C6       1.11309    0.74073    0.78823   1.00
C6       0.91672    0.45792    0.77936   1.00
H2       0.98333    0.51513    0.80362   1.00
C6       0.91723    0.41314    0.81390   1.00
H2       0.97827    0.61572    0.82747   1.00
C6       0.89586    0.60158    0.84651   1.00
C6       0.95841    0.53771    0.84907   1.00
H2       0.78849    0.46042    0.79687   1.00
C6       0.77248    0.40911    0.82540   1.00
C6       0.75949    0.50998    0.81944   1.00
C6       0.99454    0.74617    0.75448   1.00
C6       1.01059    0.85197    0.77160   1.00
H2       1.08879    0.83163    0.76358   1.00
H2       1.06715    0.86336    0.81148   1.00
C6       1.11477    0.82668    0.83184   1.00
C6       1.17132    0.90468    0.80228   1.00
H2       1.14402    0.75209    0.80193   1.00
C6       1.07791    0.66184    0.78571   1.00
C6       1.16470    0.77222    0.77021   1.00
H2       0.93373    0.50240    0.76956   1.00
H2       0.86276    0.42288    0.77627   1.00
H2       0.94531    0.43297    0.77478   1.00
H2       0.96249    0.40782    0.81257   1.00
H2       0.90712    0.41421    0.82997   1.00
H2       0.87483    0.36657    0.80761   1.00
H2       0.93152    0.63971    0.85720   1.00
H2       0.87573    0.62725    0.83725   1.00
H2       0.85420    0.56175    0.85534   1.00
H2       0.99325    0.52371    0.84200   1.00
H2       0.98696    0.57276    0.86142   1.00
H2       0.91589    0.49232    0.85585   1.00
H2       0.79347    0.41932    0.84074   1.00
H2       0.71689    0.38377    0.82664   1.00
H2       0.78273    0.37191    0.81827   1.00
H2       0.75411    0.50972    0.83589   1.00
H2       0.78081    0.56236    0.81450   1.00
H2       0.70804    0.48164    0.81309   1.00
H2       0.94029    0.72235    0.75784   1.00
H2       1.00221    0.76925    0.73944   1.00
H2       1.00775    0.70621    0.75336   1.00
H2       1.00982    0.87147    0.75648   1.00
H2       0.95868    0.82781    0.77737   1.00
H2       1.04235    0.89645    0.78097   1.00
H2       1.13101    0.87089    0.84176   1.00
H2       1.06823    0.78507    0.83844   1.00
H2       1.15412    0.81233    0.83228   1.00
H2       1.16682    0.92146    0.78714   1.00
H2       1.18807    0.94855    0.81238   1.00
H2       1.21148    0.89133    0.80205   1.00
H2       1.04314    0.64352    0.77281   1.00
H2       1.11521    0.64510    0.78377   1.00
H2       1.04866    0.63689    0.79923   1.00
H2       1.20198    0.75494    0.77055   1.00
H2       1.13867    0.75742    0.75556   1.00
H2       1.19349    0.82773    0.77095   1.00
C4       0.34981    0.16138    0.78085   1.00
C4       0.29200    0.13027    0.79405   1.00
C3       0.35454    0.20204    0.76386   1.00
C3       0.23077    0.13154    0.79052   1.00
C3       0.40592    0.15073    0.78453   1.00
C3       0.29496    0.09597    0.81185   1.00
C2       0.46705    0.21971    0.75431   1.00
C2       0.17673    0.06482    0.82122   1.00
C3       0.41134    0.23010    0.75088   1.00
C3       0.17494    0.10028    0.80382   1.00
C3       0.46332    0.18054    0.77148   1.00
C3       0.23710    0.06231    0.82459   1.00
H1       0.31695    0.21266    0.76045   1.00
H1       0.22477    0.15484    0.77811   1.00
C5       0.40447    0.11062    0.80127   1.00
C5       0.35533    0.09486    0.81677   1.00
H1       0.41169    0.25866    0.73874   1.00
H1       0.13220    0.10334    0.80059   1.00
H1       0.50399    0.17403    0.77463   1.00
H1       0.23850    0.03430    0.83656   1.00
O3       0.45298    0.09109    0.80283   1.00
O3       0.36415    0.07413    0.83569   1.00
Si1      0.43727    0.01759    0.79370   1.00
Si1      0.39327    0.12958    0.85414   1.00
C6       0.51992    0.02958    0.79701   1.00
C6       0.37815    -0.04622   0.81006   1.00
C6       0.41374    0.00664    0.76785   1.00
C6       0.40939    0.21310    0.84919   1.00
C6       0.32966    0.09159    0.87276   1.00
C6       0.46749    0.13217    0.86341   1.00
C6       0.58021    0.09966    0.78954   1.00
H2       0.52463    0.03066    0.81351   1.00
C6       0.53796    -0.02538   0.78957   1.00
H2       0.38749    -0.01852   0.82433   1.00
C6       0.30034    -0.07718   0.80558   1.00
C6       0.38718    -0.10889   0.81494   1.00
H2       0.45262    0.05475    0.76122   1.00
C6       0.41805    -0.05108   0.75601   1.00
C6       0.34279    -0.00238   0.76148   1.00
C6       0.46000    0.25420    0.83169   1.00
C6       0.34811    0.22649    0.84724   1.00
H2       0.43485    0.24000    0.86309   1.00
H2       0.28680    0.09472    0.86642   1.00
C6       0.30178    0.01391    0.87678   1.00
C6       0.34470    0.12693    0.89400   1.00
H2       0.44825    0.08797    0.87342   1.00
C6       0.51219    0.12153    0.84747   1.00
C6       0.51790    0.19509    0.87651   1.00
H2       0.57852    0.14251    0.79654   1.00
H2       0.57882    0.10479    0.77309   1.00
H2       0.62955    0.10509    0.79354   1.00
H2       0.57553    -0.02657   0.79973   1.00
H2       0.49397    -0.07654   0.78913   1.00
H2       0.56068    -0.01412   0.77444   1.00
H2       0.26984    -0.10453   0.81884   1.00
H2       0.28743    -0.03804   0.80206   1.00
H2       0.28402    -0.11335   0.79301   1.00
H2       0.43766    -0.09286   0.82114   1.00
H2       0.35060    -0.14188   0.82641   1.00
H2       0.37934    -0.13984   0.80141   1.00
H2       0.38932    -0.10009   0.76374   1.00
H2       0.39806    -0.05726   0.74056   1.00
H2       0.47056    -0.03915   0.75420   1.00
H2       0.30216    -0.05559   0.76209   1.00
H2       0.32670    0.02640    0.77080   1.00
H2       0.34512    0.01497    0.74586   1.00
H2       0.43492    0.24142    0.81695   1.00
H2       0.48087    0.30896    0.83389   1.00
H2       0.50311    0.24553    0.83104   1.00
H2       0.36633    0.28126    0.84708   1.00
H2       0.31939    0.20556    0.83330   1.00
H2       0.31292    0.20553    0.85999   1.00
H2       0.25516    -0.00753   0.88587   1.00
H2       0.28865    -0.01504   0.86262   1.00
H2       0.33858    0.00499    0.88490   1.00
H2       0.36261    0.18135    0.89270   1.00
H2       0.29827    0.10477    0.90320   1.00
H2       0.38275    0.12040    0.90232   1.00
H2       0.53259    0.16154    0.83599   1.00
H2       0.55487    0.11984    0.85461   1.00
H2       0.48179    0.07313    0.83977   1.00
H2       0.55585    0.18584    0.88386   1.00
H2       0.54531    0.24099    0.86724   1.00
H2       0.49149    0.20559    0.88857   1.00
C4       0.83826    0.18860    0.78106   1.00
C4       0.86930    0.16172    0.79421   1.00
C3       0.78982    0.14952    0.76589   1.00
C3       0.85975    0.09502    0.79230   1.00
C3       0.85710    0.25869    0.78283   1.00
C3       0.91228    0.20327    0.81027   1.00
C2       0.78035    0.24758    0.75438   1.00
C2       0.93512    0.11165    0.82115   1.00
C3       0.76193    0.17824    0.75284   1.00
C3       0.89122    0.07042    0.80551   1.00
C3       0.82742    0.28638    0.76976   1.00
C3       0.94581    0.17854    0.82287   1.00
H1       0.77320    0.09898    0.76392   1.00
H1       0.83000    0.06251    0.78119   1.00
C5       0.90524    0.30059    0.79768   1.00
C5       0.92210    0.26943    0.81358   1.00
H1       0.72749    0.14760    0.74205   1.00
H1       0.88199    0.02156    0.80351   1.00
H1       0.84000    0.33624    0.77158   1.00
H1       0.97980    0.21044    0.83346   1.00
O3       0.93169    0.37017    0.79715   1.00
O3       0.95198    0.30494    0.83121   1.00
Si1      1.00325    0.41852    0.78524   1.00
Si1      0.90434    0.29086    0.85123   1.00
C6       1.00127    0.49530    0.78698   1.00
C6       1.06952    0.42180    0.80011   1.00
C6       1.00218    0.39442    0.75971   1.00
C6       0.81699    0.22843    0.84962   1.00
C6       0.94400    0.26631    0.86960   1.00
C6       0.91352    0.36974    0.85867   1.00
C6       0.93196    0.49073    0.78116   1.00
H2       1.00697    0.50535    0.80327   1.00
C6       1.05789    0.56247    0.77671   1.00
H2       1.04707    0.41118    0.81526   1.00
C6       1.09143    0.36727    0.79626   1.00
C6       1.13789    0.49124    0.80195   1.00
H2       0.95374    0.38809    0.75428   1.00
C6       1.05846    0.44811    0.74530   1.00
C6       1.00120    0.32602    0.75477   1.00
C6       0.77306    0.23688    0.83281   1.00
C6       0.79537    0.15101    0.84981   1.00
H2       0.79705    0.23532    0.86395   1.00
H2       0.93350    0.21611    0.86453   1.00
C6       1.02357    0.31064    0.87086   1.00
C6       0.91687    0.25716    0.89186   1.00
H2       0.96136    0.39429    0.86713   1.00
C6       0.92358    0.42058    0.84128   1.00
C6       0.85844    0.36908    0.87319   1.00
H2       0.88967    0.45179    0.79004   1.00
H2       0.92017    0.47841    0.76511   1.00
H2       0.93336    0.53891    0.78412   1.00
H2       1.06723    0.60674    0.78579   1.00
H2       1.10623    0.56364    0.77511   1.00
H2       1.04290    0.57023    0.76164   1.00
H2       1.12163    0.36558    0.80896   1.00
H2       1.04773    0.31610    0.79482   1.00
H2       1.12259    0.37906    0.78260   1.00
H2       1.12917    0.53160    0.80755   1.00
H2       1.17262    0.48773    0.81278   1.00
H2       1.16418    0.50672    0.78737   1.00
H2       1.10939    0.46632    0.75152   1.00
H2       1.05677    0.42715    0.73021   1.00
H2       1.05121    0.49145    0.74272   1.00
H2       1.05247    0.33301    0.75404   1.00
H2       0.97288    0.28589    0.76570   1.00
H2       0.97737    0.30657    0.73999   1.00
H2       0.77796    0.21696    0.81826   1.00
H2       0.71902    0.20876    0.83689   1.00
H2       0.78671    0.28989    0.83070   1.00
H2       0.74013    0.11923    0.85162   1.00
H2       0.80869    0.13514    0.83578   1.00
H2       0.81818    0.13828    0.86241   1.00
H2       1.04420    0.28502    0.88009   1.00
H2       1.04695    0.31850    0.85586   1.00
H2       1.04013    0.36053    0.87759   1.00
H2       0.86152    0.22497    0.89253   1.00
H2       0.93832    0.23245    0.90116   1.00
H2       0.93114    0.30621    0.89887   1.00
H2       0.87968    0.40059    0.83115   1.00
H2       0.93286    0.46955    0.84721   1.00
H2       0.96780    0.43076    0.83226   1.00
H2       0.87517    0.42017    0.87911   1.00
H2       0.81002    0.35180    0.86534   1.00
H2       0.84910    0.33611    0.88627   1.00
C4       -0.01674   0.46906    0.38581   1.00
C4       0.04000    0.49675    0.37219   1.00
C3       -0.06330   0.39814    0.38789   1.00
C3       0.05226    0.45688    0.35801   1.00
C3       -0.02872   0.51438    0.39787   1.00
C3       0.08764    0.56821    0.37266   1.00
C2       -0.13220   0.41727    0.41295   1.00
C2       0.15510    0.55682    0.34484   1.00
C3       -0.11966   0.37294    0.40100   1.00
C3       0.10856    0.48595    0.34483   1.00
C3       -0.08514   0.48787    0.41128   1.00
C3       0.14240    0.59691    0.35867   1.00
H1       -0.05749   0.36271    0.38000   1.00
H1       0.02042    0.40562    0.35674   1.00
C5       0.01591    0.58587    0.39652   1.00
C5       0.08014    0.61079    0.38694   1.00
H1       -0.15189   0.32117    0.40176   1.00
H1       0.11517    0.45454    0.33502   1.00
H1       -0.09201   0.52088    0.42025   1.00
H1       0.17352    0.64868    0.35832   1.00
O3       -0.00191   0.62967    0.40552   1.00
O3       0.13220    0.67674    0.39039   1.00
Si1      -0.04150   0.66035    0.39232   1.00
Si1      0.19221    0.68945    0.40647   1.00
C6       -0.05957   0.69954    0.41265   1.00
C6       0.01839    0.72154    0.37551   1.00
C6       -0.11710   0.59662    0.38082   1.00
C6       0.18925    0.61763    0.41808   1.00
C6       0.26681    0.73267    0.39189   1.00
C6       0.19411    0.74617    0.42509   1.00
C6       -0.09032   0.65474    0.43214   1.00
H2       -0.00875   0.73991    0.41706   1.00
C6       -0.10242   0.73587    0.40929   1.00
H2       0.06639    0.73722    0.38338   1.00
C6       0.02667    0.69751    0.35398   1.00
C6       0.01632    0.78873    0.37174   1.00
H2       -0.14204   0.56106    0.39334   1.00
C6       -0.16935   0.61797    0.37323   1.00
C6       -0.11250   0.55361    0.36281   1.00
C6       0.12381    0.56802    0.43032   1.00
C6       0.20926    0.57154    0.40550   1.00
H2       0.22977    0.64110    0.42937   1.00
H2       0.26364    0.69382    0.38145   1.00
C6       0.27263    0.79170    0.37812   1.00
C6       0.33651    0.76139    0.40322   1.00
H2       0.22322    0.79630    0.41803   1.00
C6       0.12421    0.73957    0.43076   1.00
C6       0.23081    0.75081    0.44566   1.00
H2       -0.05779   0.63542    0.43775   1.00
H2       -0.14085   0.61108    0.42915   1.00
H2       -0.09509   0.68431    0.44449   1.00
H2       -0.08469   0.77950    0.41952   1.00
H2       -0.09871   0.75467    0.39390   1.00
H2       -0.15649   0.70233    0.41258   1.00
H2       0.07412    0.73590    0.34686   1.00
H2       0.02920    0.65081    0.35463   1.00
H2       -0.01520   0.68928    0.34399   1.00
H2       0.02052    0.81541    0.38592   1.00
H2       0.05914    0.82447    0.36230   1.00
H2       -0.03061   0.77820    0.36400   1.00
H2       -0.14499   0.66190    0.36309   1.00
H2       -0.21219   0.57663    0.36508   1.00
H2       -0.19226   0.63014    0.38585   1.00
H2       -0.10719   0.57824    0.34816   1.00
H2       -0.07033   0.54407    0.36416   1.00
H2       -0.15904   0.50377    0.36212   1.00
H2       0.08365    0.53120    0.42046   1.00
H2       0.13524    0.53889    0.44129   1.00
H2       0.10348    0.59505    0.43885   1.00
H2       0.21422    0.53553    0.41542   1.00
H2       0.17119    0.54147    0.39411   1.00
H2       0.25833    0.60119    0.39792   1.00
H2       0.31430    0.80741    0.36723   1.00
H2       0.22614    0.77542    0.36930   1.00
H2       0.28246    0.83647    0.38695   1.00
H2       0.33788    0.72282    0.41281   1.00
H2       0.37829    0.77805    0.39232   1.00
H2       0.34706    0.80531    0.41263   1.00
H2       0.08908    0.68999    0.43735   1.00
H2       0.13033    0.77903    0.44148   1.00
H2       0.10038    0.74579    0.41727   1.00
H2       0.23768    0.79459    0.45455   1.00
H2       0.20135    0.70513    0.45488   1.00
H2       0.28144    0.75750    0.44329   1.00
C4       0.48586    1.01691    0.38574   1.00
C4       0.45684    0.96014    0.37213   1.00
C3       0.46348    1.06521    0.38715   1.00
C3       0.40693    0.94951    0.35732   1.00
C3       0.54108    1.02706    0.39851   1.00
C3       0.47837    0.91078    0.37328   1.00
C2       0.54944    1.13225    0.41293   1.00
C2       0.40177    0.84485    0.34486   1.00
C3       0.49460    1.12151    0.40028   1.00
C3       0.37966    0.89312    0.34418   1.00
C3       0.57095    1.08347    0.41193   1.00
C3       0.45240    0.85592    0.35932   1.00
H1       0.42375    1.06077    0.37873   1.00
H1       0.38923    0.98262    0.35555   1.00
C5       0.56590    0.98063    0.39786   1.00
C5       0.52608    0.91665    0.38819   1.00
H1       0.47656    1.15503    0.40054   1.00
H1       0.34328    0.88773    0.33389   1.00
H1       0.60926    1.08904    0.42140   1.00
H1       0.47152    0.82348    0.35948   1.00
O3       0.62592    0.99656    0.40759   1.00
O3       0.53736    0.86317    0.39221   1.00
Si1      0.69781    1.03420    0.39510   1.00
Si1      0.48689    0.80391    0.40804   1.00
C6       0.75227    1.05060    0.41609   1.00
C6       0.69880    0.97309    0.37875   1.00
C6       0.71360    1.11065    0.38323   1.00
C6       0.41816    0.80953    0.41865   1.00
C6       0.45504    0.72905    0.39357   1.00
C6       0.53841    0.80007    0.42743   1.00
C6       0.73738    1.08252    0.43514   1.00
H2       0.73961    0.99928    0.42071   1.00
C6       0.83187    1.09128    0.41353   1.00
H2       0.66442    0.92547    0.38650   1.00
C6       0.66931    0.96573    0.35685   1.00
C6       0.76720    0.97262    0.37593   1.00
H2       0.70266    1.13649    0.39542   1.00
C6       0.78857    1.16108    0.37631   1.00
C6       0.66884    1.10762    0.36460   1.00
C6       0.43471    0.87563    0.43064   1.00
C6       0.35409    0.79153    0.40530   1.00
H2       0.39863    0.76897    0.42999   1.00
H2       0.42140    0.73354    0.38260   1.00
C6       0.50858    0.72109    0.38059   1.00
C6       0.41096    0.65968    0.40481   1.00
H2       0.55874    0.76962    0.42087   1.00
C6       0.60240    0.86892    0.43347   1.00
C6       0.50324    0.76401    0.44779   1.00
H2       0.68469    1.05136    0.44026   1.00
H2       0.74634    1.13369    0.43189   1.00
H2       0.76980    1.08619    0.44793   1.00
H2       0.85541    1.07234    0.42424   1.00
H2       0.84830    1.08686    0.39840   1.00
H2       0.85362    1.14558    0.41672   1.00
H2       0.65948    0.91772    0.34994   1.00
H2       0.62088    0.96496    0.35682   1.00
H2       0.70500    1.00705    0.34703   1.00
H2       0.78745    0.96760    0.39045   1.00
H2       0.75976    0.92924    0.36671   1.00
H2       0.80553    1.01901    0.36838   1.00
H2       0.80801    1.13550    0.36662   1.00
H2       0.79258    1.20459    0.36788   1.00
H2       0.82235    1.18318    0.38925   1.00
H2       0.68928    1.10141    0.35027   1.00
H2       0.61642    1.06660    0.36553   1.00
H2       0.66742    1.15510    0.36354   1.00
H2       0.44062    0.91633    0.42055   1.00
H2       0.39325    0.86556    0.44111   1.00
H2       0.48090    0.89463    0.43968   1.00
H2       0.31259    0.78804    0.41467   1.00
H2       0.36466    0.82992    0.39376   1.00
H2       0.33409    0.74225    0.39780   1.00
H2       0.48284    0.67957    0.36964   1.00
H2       0.54095    0.76725    0.37186   1.00
H2       0.54144    0.70984    0.38997   1.00
H2       0.37065    0.65981    0.41384   1.00
H2       0.38604    0.61801    0.39386   1.00
H2       0.44219    0.64777    0.41474   1.00
H2       0.58879    0.90525    0.43960   1.00
H2       0.63363    0.86153    0.44469   1.00
H2       0.63431    0.89199    0.42025   1.00
H2       0.53813    0.75572    0.45724   1.00
H2       0.48737    0.79465    0.45656   1.00
H2       0.45856    0.71408    0.44516   1.00
C4       0.53106    0.51414    0.38575   1.00
C4       0.50331    0.54316    0.37214   1.00
C3       0.60175    0.53660    0.38718   1.00
C3       0.54261    0.59316    0.35735   1.00
C3       0.48597    0.45884    0.39849   1.00
C3       0.43239    0.52155    0.37325   1.00
C2       0.58282    0.45056    0.41293   1.00
C2       0.44309    0.59823    0.34486   1.00
C3       0.62693    0.50547    0.40031   1.00
C3       0.51349    0.62042    0.34420   1.00
C3       0.51251    0.42897    0.41191   1.00
C3       0.40351    0.54752    0.35930   1.00
H1       0.63705    0.57639    0.37878   1.00
H1       0.59344    0.61092    0.35560   1.00
C5       0.41472    0.43394    0.39781   1.00
C5       0.39052    0.47374    0.38815   1.00
H1       0.67850    0.52358    0.40059   1.00
H1       0.54451    0.65687    0.33393   1.00
H1       0.47976    0.39060    0.42136   1.00
H1       0.35194    0.52834    0.35944   1.00
O3       0.37063    0.37386    0.40751   1.00
O3       0.32572    0.46237    0.39214   1.00
Si1      0.33651    0.30203    0.39499   1.00
Si1      0.31678    0.51271    0.40798   1.00
C6       0.29841    0.24746    0.41596   1.00
C6       0.27444    0.30102    0.37863   1.00
C6       0.39729    0.28639    0.38314   1.00
C6       0.39104    0.58146    0.41863   1.00
C6       0.27376    0.54455    0.39350   1.00
C6       0.26136    0.46107    0.42734   1.00
C6       0.34515    0.26232    0.43503   1.00
H2       0.25968    0.26004    0.42057   1.00
C6       0.25959    0.16788    0.41337   1.00
H2       0.26111    0.33533    0.38638   1.00
C6       0.29665    0.33062    0.35674   1.00
C6       0.20564    0.23259    0.37577   1.00
H2       0.43403    0.29732    0.39534   1.00
C6       0.37287    0.21147    0.37620   1.00
C6       0.43907    0.33125    0.36453   1.00
C6       0.44059    0.56494    0.43063   1.00
C6       0.43711    0.64561    0.40531   1.00
H2       0.36992    0.60089    0.42997   1.00
H2       0.31191    0.57826    0.38256   1.00
C6       0.21235    0.49102    0.38050   1.00
C6       0.24834    0.58851    0.40475   1.00
H2       0.21061    0.44071    0.42076   1.00
C6       0.26629    0.39710    0.43337   1.00
C6       0.26034    0.49613    0.44771   1.00
H2       0.36659    0.31498    0.44017   1.00
H2       0.38741    0.25344    0.43179   1.00
H2       0.31636    0.22983    0.44780   1.00
H2       0.21705    0.14424    0.42406   1.00
H2       0.23881    0.15149    0.39823   1.00
H2       0.29217    0.14617    0.41656   1.00
H2       0.25846    0.34042    0.34983   1.00
H2       0.34428    0.37908    0.35674   1.00
H2       0.30238    0.29501    0.34691   1.00
H2       0.18032    0.21226    0.39027   1.00
H2       0.16970    0.24001    0.36655   1.00
H2       0.21379    0.19433    0.36821   1.00
H2       0.32789    0.19202    0.36649   1.00
H2       0.41243    0.20755    0.36778   1.00
H2       0.36117    0.17763    0.38912   1.00
H2       0.41250    0.31086    0.35019   1.00
H2       0.45040    0.38365    0.36548   1.00
H2       0.48801    0.33274    0.36348   1.00
H2       0.47546    0.55912    0.42055   1.00
H2       0.47189    0.60636    0.44112   1.00
H2       0.41340    0.51870    0.43965   1.00
H2       0.47505    0.68709    0.41470   1.00
H2       0.46501    0.63514    0.39378   1.00
H2       0.40782    0.66558    0.39781   1.00
H2       0.19657    0.51677    0.36955   1.00
H2       0.22624    0.45873    0.37177   1.00
H2       0.16822    0.45808    0.38986   1.00
H2       0.28871    0.62881    0.41380   1.00
H2       0.23160    0.61344    0.39380   1.00
H2       0.20516    0.55720    0.41467   1.00
H2       0.31622    0.41075    0.43952   1.00
H2       0.22764    0.36580    0.44458   1.00
H2       0.25755    0.36526    0.42014   1.00
H2       0.21712    0.46116    0.45714   1.00
H2       0.30681    0.51201    0.45650   1.00
H2       0.25503    0.54078    0.44509   1.00
C4       0.19070    0.34734    0.22013   1.00
C4       0.16300    0.29059    0.20651   1.00
C3       0.15520    0.35160    0.23730   1.00
C3       0.09492    0.23543    0.20764   1.00
C3       0.25719    0.40375    0.21633   1.00
C3       0.20526    0.28815    0.19085   1.00
C2       0.24889    0.46535    0.24636   1.00
C2       0.11034    0.17843    0.17811   1.00
C3       0.18328    0.40911    0.25000   1.00
C3       0.06946    0.18057    0.19395   1.00
C3       0.28513    0.46075    0.22954   1.00
C3       0.17776    0.23387    0.17669   1.00
H1       0.10798    0.31295    0.24113   1.00
H1       0.06169    0.23369    0.21835   1.00
C5       0.29543    0.40273    0.19942   1.00
C5       0.27451    0.34009    0.18927   1.00
H1       0.15502    0.40953    0.26212   1.00
H1       0.02000    0.14181    0.19561   1.00
H1       0.33362    0.50000    0.22695   1.00
H1       0.20734    0.23508    0.16480   1.00
O3       0.35419    0.46131    0.19387   1.00
O3       0.31952    0.33214    0.17698   1.00
Si1      0.35094    0.51181    0.17678   1.00
Si1      0.35700    0.29207    0.18594   1.00
C6       0.43571    0.57915    0.17953   1.00
C6       0.33847    0.47129    0.15306   1.00
C6       0.29193    0.53863    0.18268   1.00
C6       0.33582    0.25807    0.21074   1.00
C6       0.33408    0.22554    0.16848   1.00
C6       0.44558    0.34792    0.18395   1.00
C6       0.46050    0.60194    0.20185   1.00
H2       0.46501    0.55601    0.17405   1.00
C6       0.46265    0.64714    0.16719   1.00
H2       0.35953    0.43788    0.15572   1.00
C6       0.26372    0.42374    0.14554   1.00
C6       0.37764    0.51562    0.13420   1.00
H2       0.30412    0.55428    0.19852   1.00
C6       0.29925    0.60227    0.17103   1.00
C6       0.21338    0.48572    0.18192   1.00
C6       0.34608    0.30787    0.22856   1.00
C6       0.26568    0.19187    0.21464   1.00
H2       0.37299    0.24165    0.21343   1.00
H2       0.27978    0.19169    0.17125   1.00
C6       0.33979    0.24545    0.14553   1.00
C6       0.36869    0.18101    0.17083   1.00
H2       0.45706    0.34329    0.16815   1.00
C6       0.47084    0.42523    0.18697   1.00
C6       0.49396    0.33229    0.19700   1.00
H2       0.45390    0.55911    0.21114   1.00
H2       0.43241    0.62396    0.20904   1.00
H2       0.51478    0.64004    0.20231   1.00
H2       0.51664    0.66821    0.16357   1.00
H2       0.43567    0.64018    0.15296   1.00
H2       0.45887    0.68638    0.17577   1.00
H2       0.26256    0.39109    0.13314   1.00
H2       0.23115    0.38971    0.15743   1.00
H2       0.24119    0.45339    0.13991   1.00
H2       0.43258    0.54386    0.13680   1.00
H2       0.36962    0.48382    0.12083   1.00
H2       0.36040    0.55152    0.13040   1.00
H2       0.29936    0.59541    0.15464   1.00
H2       0.25782    0.61222    0.17462   1.00
H2       0.34566    0.64846    0.17534   1.00
H2       0.19214    0.48175    0.16678   1.00
H2       0.20069    0.43471    0.18642   1.00
H2       0.18591    0.50153    0.19219   1.00
H2       0.30291    0.31624    0.23005   1.00
H2       0.35088    0.28677    0.24298   1.00
H2       0.39208    0.35723    0.22673   1.00
H2       0.26423    0.17202    0.22988   1.00
H2       0.22298    0.20101    0.21358   1.00
H2       0.25668    0.15100    0.20414   1.00
H2       0.31381    0.19970    0.13609   1.00
H2       0.31551    0.27582    0.14246   1.00
H2       0.39272    0.27444    0.14050   1.00
H2       0.36534    0.16298    0.18636   1.00
H2       0.34333    0.13577    0.16116   1.00
H2       0.42233    0.20924    0.16640   1.00
H2       0.45984    0.43629    0.20215   1.00
H2       0.52564    0.45658    0.18432   1.00
H2       0.44575    0.44156    0.17616   1.00
H2       0.54699    0.36390    0.19216   1.00
H2       0.49130    0.34254    0.21307   1.00
H2       0.48150    0.27937    0.19544   1.00
C4       0.64616    0.84108    0.21767   1.00
C4       0.70407    0.87213    0.20451   1.00
C3       0.58266    0.83634    0.21308   1.00
C3       0.70625    0.90695    0.18636   1.00
C3       0.65178    0.81400    0.23666   1.00
C3       0.76339    0.86837    0.20958   1.00
C2       0.53253    0.78055    0.24553   1.00
C2       0.82369    0.93492    0.17894   1.00
C3       0.52752    0.80727    0.22667   1.00
C3       0.76416    0.93694    0.17382   1.00
C3       0.59515    0.78373    0.24999   1.00
C3       0.82222    0.90144    0.19719   1.00
H1       0.57455    0.85366    0.19971   1.00
H1       0.66600    0.91193    0.18178   1.00
C5       0.71384    0.81707    0.24217   1.00
C5       0.76400    0.83221    0.22705   1.00
H1       0.48300    0.80571    0.22259   1.00
H1       0.76261    0.96095    0.16079   1.00
H1       0.59933    0.76282    0.26331   1.00
H1       0.86570    0.90201    0.20171   1.00
O3       0.72280    0.80147    0.26172   1.00
O3       0.81494    0.81641    0.23007   1.00
Si1      0.75946    0.86217    0.27854   1.00
Si1      0.80743    0.74774    0.21956   1.00
C6       0.74388    0.80918    0.29985   1.00
C6       0.84711    0.90854    0.27266   1.00
C6       0.71968    0.91182    0.28114   1.00
C6       0.73559    0.69829    0.20404   1.00
C6       0.88199    0.77904    0.20496   1.00
C6       0.81178    0.69713    0.23915   1.00
C6       0.66926    0.74786    0.30206   1.00
H2       0.77518    0.78609    0.29657   1.00
C6       0.76515    0.84012    0.32173   1.00
H2       0.85429    0.87074    0.26446   1.00
C6       0.87306    0.97120    0.25809   1.00
C6       0.89987    0.93344    0.29047   1.00
H2       0.66586    0.87283    0.28229   1.00
C6       0.73640    0.95668    0.30071   1.00
C6       0.72512    0.96087    0.26346   1.00
C6       0.66319    0.67050    0.21355   1.00
C6       0.73230    0.72437    0.18229   1.00
H2       0.73992    0.65317    0.20109   1.00
H2       0.87424    0.80685    0.19271   1.00
C6       0.94981    0.83232    0.21560   1.00
C6       0.89668    0.72554    0.19463   1.00
H2       0.86631    0.71976    0.24208   1.00
C6       0.78025    0.69973    0.25991   1.00
C6       0.78484    0.61987    0.23466   1.00
H2       0.65303    0.71597    0.28848   1.00
H2       0.63310    0.76569    0.30473   1.00
H2       0.66520    0.71475    0.31470   1.00
H2       0.78000    0.80927    0.33083   1.00
H2       0.80788    0.89204    0.32171   1.00
H2       0.72328    0.84056    0.32983   1.00
H2       0.92391    0.98610    0.25231   1.00
H2       0.84037    0.95993    0.24487   1.00
H2       0.87644    1.01528    0.26591   1.00
H2       0.89248    0.89107    0.30009   1.00
H2       0.95218    0.95682    0.28477   1.00
H2       0.89623    0.97140    0.29978   1.00
H2       0.79136    0.98966    0.30261   1.00
H2       0.71335    0.98916    0.30035   1.00
H2       0.71567    0.92533    0.31418   1.00
H2       0.77085    1.01097    0.26472   1.00
H2       0.72589    0.94146    0.24851   1.00
H2       0.68132    0.96887    0.26385   1.00
H2       0.64708    0.70846    0.21316   1.00
H2       0.62521    0.62621    0.20506   1.00
H2       0.66094    0.65420    0.22920   1.00
H2       0.69007    0.68427    0.17363   1.00
H2       0.72418    0.76781    0.18270   1.00
H2       0.77838    0.73866    0.17354   1.00
H2       0.99083    0.85718    0.20445   1.00
H2       0.94437    0.87262    0.22294   1.00
H2       0.96623    0.80871    0.22702   1.00
H2       0.85247    0.68719    0.18628   1.00
H2       0.93841    0.75058    0.18371   1.00
H2       0.91160    0.69969    0.20576   1.00
H2       0.72560    0.68065    0.25882   1.00
H2       0.78860    0.67023    0.27152   1.00
H2       0.80434    0.75198    0.26529   1.00
H2       0.79976    0.59680    0.24672   1.00
H2       0.72924    0.59120    0.23358   1.00
H2       0.80574    0.61275    0.22057   1.00
C4       0.15786    0.80409    0.21770   1.00
C4       0.12694    0.83120    0.20458   1.00
C3       0.15083    0.73862    0.21514   1.00
C3       0.08098    0.79326    0.18875   1.00
C3       0.19728    0.84380    0.23456   1.00
C3       0.14255    0.90008    0.20726   1.00
C2       0.21919    0.75157    0.24547   1.00
C2       0.06534    0.88920    0.17900   1.00
C3       0.18030    0.71288    0.22870   1.00
C3       0.05150    0.82163    0.17618   1.00
C3       0.22766    0.81743    0.24784   1.00
C3       0.11005    0.92675    0.19499   1.00
H1       0.12429    0.70780    0.20331   1.00
H1       0.06723    0.74379    0.18596   1.00
C5       0.20633    0.90970    0.23798   1.00
C5       0.18998    0.94183    0.22225   1.00
H1       0.17307    0.66498    0.22616   1.00
H1       0.01909    0.79198    0.16486   1.00
H1       0.25736    0.84725    0.25954   1.00
H1       0.11841    0.97467    0.19794   1.00
O3       0.23445    0.94297    0.25596   1.00
O3       0.21594    1.01156    0.22247   1.00
Si1      0.18485    0.93602    0.27489   1.00
Si1      0.28168    1.05977    0.20824   1.00
C6       0.24961    0.97757    0.29322   1.00
C6       0.14611    0.98464    0.26882   1.00
C6       0.12785    0.85067    0.28186   1.00
C6       0.31479    1.01996    0.19251   1.00
C6       0.25226    1.10360    0.19314   1.00
C6       0.34604    1.11948    0.22430   1.00
C6       0.30415    0.95430    0.29432   1.00
H2       0.27696    1.02980    0.28750   1.00
C6       0.23172    0.98342    0.31587   1.00
H2       0.18273    1.02197    0.25821   1.00
C6       0.07628    0.94883    0.25735   1.00
C6       0.13722    1.02729    0.28600   1.00
H2       0.16142    0.82898    0.28253   1.00
C6       0.09338    0.83808    0.30324   1.00
C6       0.06762    0.80369    0.26723   1.00
C6       0.33814    0.97272    0.20274   1.00
C6       0.27532    0.98224    0.17279   1.00
H2       0.36146    1.06344    0.18672   1.00
H2       0.21530    1.06435    0.18303   1.00
C6       0.21194    1.13327    0.20443   1.00
C6       0.30546    1.16189    0.17922   1.00
H2       0.33197    1.15859    0.22664   1.00
C6       0.34948    1.09409    0.24602   1.00
C6       0.42107    1.15775    0.21617   1.00
H2       0.32816    0.95880    0.27960   1.00
H2       0.28128    0.90130    0.29930   1.00
H2       0.34510    0.98595    0.30490   1.00
H2       0.27130    1.03135    0.32244   1.00
H2       0.18343    0.98232    0.31749   1.00
H2       0.22920    0.94264    0.32534   1.00
H2       0.06521    0.98658    0.25077   1.00
H2       0.07625    0.91758    0.24481   1.00
H2       0.03443    0.91690    0.26759   1.00
H2       0.18586    1.06219    0.29317   1.00
H2       0.11747    1.05906    0.27996   1.00
H2       0.10154    0.99413    0.29758   1.00
H2       0.06792    0.86788    0.30517   1.00
H2       0.05545    0.78437    0.30566   1.00
H2       0.13041    0.85087    0.31534   1.00
H2       0.02237    0.80805    0.26989   1.00
H2       0.08032    0.81438    0.25131   1.00
H2       0.05276    0.75023    0.26964   1.00
H2       0.29547    0.92145    0.20522   1.00
H2       0.37464    0.96778    0.19305   1.00
H2       0.36324    0.99276    0.21724   1.00
H2       0.30664    0.96892    0.16333   1.00
H2       0.22850    0.93495    0.17610   1.00
H2       0.26260    1.01399    0.16342   1.00
H2       0.18606    1.14900    0.19352   1.00
H2       0.17249    1.09511    0.21429   1.00
H2       0.24535    1.17756    0.21367   1.00
H2       0.33481    1.14508    0.17023   1.00
H2       0.27961    1.17832    0.16851   1.00
H2       0.34084    1.20644    0.18808   1.00
H2       0.36075    1.05259    0.24571   1.00
H2       0.38797    1.13516    0.25536   1.00
H2       0.30085    1.07561    0.25362   1.00
H2       0.45401    1.20028    0.22612   1.00
H2       0.44232    1.12383    0.21533   1.00
H2       0.42432    1.17925    0.20114   1.00
C4       1.01421    0.52322    0.61330   1.00
C4       0.95754    0.49577    0.62695   1.00
C3       1.02447    0.48373    0.59849   1.00
C3       0.90897    0.42515    0.62839   1.00
C3       1.06429    0.59385    0.61461   1.00
C3       0.94823    0.54092    0.63993   1.00
C2       1.13191    0.58182    0.58695   1.00
C2       0.84519    0.44409    0.65526   1.00
C3       1.08187    0.51208    0.58574   1.00
C3       0.85397    0.40005    0.64202   1.00
C3       1.12118    0.62176    0.60136   1.00
C3       0.89415    0.51428    0.65416   1.00
H1       0.99043    0.43325    0.59647   1.00
H1       0.91235    0.38983    0.61967   1.00
C5       1.05708    0.63619    0.62909   1.00
C5       0.99318    0.61229    0.63879   1.00
H1       1.08684    0.48092    0.57541   1.00
H1       0.82011    0.34856    0.64227   1.00
H1       1.15570    0.67289    0.60210   1.00
H1       0.89073    0.54679    0.66423   1.00
O3       1.11060    0.70102    0.63262   1.00
O3       0.97765    0.65747    0.64815   1.00
Si1      1.16457    0.71408    0.65087   1.00
Si1      0.92947    0.68077    0.63623   1.00
C6       1.22371    0.79983    0.64494   1.00
C6       1.12270    0.70770    0.67399   1.00
C6       1.20219    0.66225    0.64904   1.00
C6       0.89694    0.64460    0.61217   1.00
C6       0.86157    0.65791    0.65315   1.00
C6       0.97568    0.77039    0.63449   1.00
C6       1.24478    0.81522    0.62206   1.00
H2       1.19450    0.82523    0.64812   1.00
C6       1.29191    0.84063    0.65720   1.00
H2       1.08396    0.72020    0.66938   1.00
C6       1.08306    0.63634    0.68452   1.00
C6       1.16367    0.75890    0.69142   1.00
H2       1.21740    0.66821    0.63310   1.00
C6       1.26871    0.68434    0.66163   1.00
C6       1.15755    0.58344    0.65300   1.00
C6       0.94892    0.65324    0.59520   1.00
C6       0.83697    0.56909    0.61072   1.00
H2       0.87389    0.67430    0.60700   1.00
H2       0.83370    0.60230    0.65271   1.00
C6       0.88144    0.67704    0.67594   1.00
C6       0.80892    0.68106    0.64781   1.00
H2       0.96866    0.78750    0.64931   1.00
C6       1.05441    0.80388    0.63192   1.00
C6       0.95202    0.80543    0.61849   1.00
H2       1.20030    0.79815    0.61225   1.00
H2       1.27266    0.78992    0.61710   1.00
H2       1.27727    0.86995    0.61944   1.00
H2       1.30618    0.89436    0.65820   1.00
H2       1.28823    0.82192    0.67260   1.00
H2       1.33452    0.83932    0.64989   1.00
H2       1.04813    0.63604    0.69603   1.00
H2       1.05192    0.59600    0.67383   1.00
H2       1.11795    0.62332    0.69207   1.00
H2       1.18559    0.81167    0.68641   1.00
H2       1.13067    0.75300    0.70430   1.00
H2       1.20448    0.75077    0.69701   1.00
H2       1.26101    0.69111    0.67763   1.00
H2       1.28564    0.64682    0.66069   1.00
H2       1.31110    0.73142    0.65585   1.00
H2       1.15618    0.57080    0.66904   1.00
H2       1.10515    0.56187    0.64806   1.00
H2       1.17878    0.55627    0.64481   1.00
H2       0.96438    0.61490    0.59639   1.00
H2       0.92601    0.64745    0.58020   1.00
H2       0.99460    0.70336    0.59557   1.00
H2       0.81635    0.55747    0.59531   1.00
H2       0.85312    0.53249    0.61442   1.00
H2       0.79450    0.55953    0.62062   1.00
H2       0.83633    0.65089    0.68563   1.00
H2       0.91742    0.66134    0.68108   1.00
H2       0.90429    0.73172    0.67859   1.00
H2       0.79053    0.66786    0.63225   1.00
H2       0.76426    0.65565    0.65770   1.00
H2       0.83086    0.73598    0.64980   1.00
H2       1.06820    0.78851    0.61784   1.00
H2       1.07955    0.85950    0.63217   1.00
H2       1.07537    0.78891    0.64440   1.00
H2       0.97765    0.86052    0.62100   1.00
H2       0.96371    0.79704    0.60304   1.00
H2       0.89741    0.78662    0.61947   1.00
C4       0.50925    -0.01414   0.61328   1.00
C4       0.53843    0.04254    0.62692   1.00
C3       0.46181    -0.02285   0.59785   1.00
C3       0.51846    0.09280    0.62770   1.00
C3       0.52737    -0.06587   0.61523   1.00
C3       0.59066    0.05009    0.64058   1.00
C2       0.44999    -0.13193   0.58695   1.00
C2       0.59880    0.15483    0.65526   1.00
C3       0.43267    -0.08028   0.58512   1.00
C3       0.54824    0.14776    0.64135   1.00
C3       0.49838    -0.12279   0.60199   1.00
C3       0.61793    0.10420    0.65480   1.00
H1       0.44721    0.01240    0.59536   1.00
H1       0.48140    0.09073    0.61847   1.00
C5       0.57455    -0.06027   0.63034   1.00
C5       0.61501    0.00335    0.64013   1.00
H1       0.39827    -0.08406   0.57433   1.00
H1       0.53219    0.18288    0.64111   1.00
H1       0.51330    -0.15853   0.60320   1.00
H1       0.65211    0.10643    0.66534   1.00
O3       0.58322    -0.11515   0.63440   1.00
O3       0.67402    0.01698    0.65023   1.00
Si1      0.53901    -0.16847   0.65245   1.00
Si1      0.74726    0.06332    0.63897   1.00
C6       0.56357    -0.22969   0.64732   1.00
C6       0.57268    -0.12702   0.67575   1.00
C6       0.45013    -0.20348   0.64964   1.00
C6       0.74769    0.09643    0.61465   1.00
C6       0.79199    0.13088    0.65603   1.00
C6       0.78830    0.01468    0.63817   1.00
C6       0.55986    -0.25106   0.62453   1.00
H2       0.61782    -0.20194   0.65105   1.00
C6       0.53275    -0.29803   0.65967   1.00
H2       0.62489    -0.08950   0.67158   1.00
C6       0.54184    -0.08545   0.68554   1.00
C6       0.57916    -0.16901   0.69360   1.00
H2       0.44235    -0.21871   0.63369   1.00
C6       0.40264    -0.26949   0.66207   1.00
C6       0.41784    -0.15676   0.65280   1.00
C6       0.70524    0.04502    0.59746   1.00
C6       0.73486    0.15804    0.61256   1.00
H2       0.80085    0.11792    0.61006   1.00
H2       0.76589    0.16027    0.65500   1.00
C6       0.78789    0.11081    0.67893   1.00
C6       0.86887    0.18165    0.65137   1.00
H2       0.81049    0.02102    0.65326   1.00
C6       0.74132    -0.06381   0.63553   1.00
C6       0.84857    0.03651    0.62284   1.00
H2       0.58952    -0.20684   0.61479   1.00
H2       0.50728    -0.27750   0.61903   1.00
H2       0.58076    -0.28496   0.62245   1.00
H2       0.57079    -0.31400   0.66133   1.00
H2       0.51638    -0.29364   0.67482   1.00
H2       0.48895    -0.33982   0.65206   1.00
H2       0.57576    -0.05110   0.69728   1.00
H2       0.53522    -0.05348   0.67452   1.00
H2       0.49271    -0.11915   0.69266   1.00
H2       0.60917    -0.19249   0.68918   1.00
H2       0.60547    -0.13634   0.70661   1.00
H2       0.52903    -0.20871   0.69879   1.00
H2       0.41526    -0.26209   0.67820   1.00
H2       0.34875    -0.28472   0.66049   1.00
H2       0.40633    -0.31284   0.65666   1.00
H2       0.40499    -0.15487   0.66865   1.00
H2       0.45058    -0.10459   0.64792   1.00
H2       0.37056    -0.17664   0.64409   1.00
H2       0.65179    0.03127    0.59800   1.00
H2       0.72460    0.06762    0.58255   1.00
H2       0.70783    -0.00164   0.59821   1.00
H2       0.74623    0.17861    0.59714   1.00
H2       0.68212    0.14356    0.61563   1.00
H2       0.76756    0.20012    0.62260   1.00
H2       0.80702    0.15608    0.68855   1.00
H2       0.73529    0.07612    0.68359   1.00
H2       0.81793    0.08639    0.68218   1.00
H2       0.87644    0.20009    0.63577   1.00
H2       0.88826    0.22646    0.66121   1.00
H2       0.90015    0.15812    0.65399   1.00
H2       0.71385    -0.07685   0.62115   1.00
H2       0.77022    -0.09052   0.63638   1.00
H2       0.70387    -0.08375   0.64765   1.00
H2       0.87620    0.00935    0.62594   1.00
H2       0.83024    0.02526    0.60720   1.00
H2       0.88559    0.09078    0.62393   1.00
C4       0.47660    0.49076    0.61328   1.00
C4       0.50411    0.46158    0.62692   1.00
C3       0.51537    0.53829    0.59787   1.00
C3       0.57435    0.48163    0.62773   1.00
C3       0.40672    0.47254    0.61521   1.00
C3       0.45940    0.40926    0.64056   1.00
C2       0.41808    0.55002    0.58695   1.00
C2       0.55601    0.40119    0.65526   1.00
C3       0.48707    0.56742    0.58514   1.00
C3       0.59953    0.45185    0.64137   1.00
C3       0.37880    0.50153    0.60197   1.00
C3       0.48624    0.38199    0.65477   1.00
H1       0.56525    0.55296    0.59540   1.00
H1       0.60936    0.51875    0.61852   1.00
C5       0.36511    0.42527    0.63029   1.00
C5       0.38830    0.38483    0.64008   1.00
H1       0.51772    0.60189    0.57437   1.00
H1       0.65071    0.46796    0.64115   1.00
H1       0.32812    0.48656    0.60316   1.00
H1       0.45426    0.34774    0.66529   1.00
O3       0.30151    0.41650    0.63434   1.00
O3       0.34293    0.32576    0.65015   1.00
Si1      0.29225    0.46059    0.65239   1.00
Si1      0.31616    0.25258    0.63886   1.00
C6       0.20648    0.43595    0.64723   1.00
C6       0.29998    0.42685    0.67569   1.00
C6       0.34605    0.54950    0.64962   1.00
C6       0.34897    0.25230    0.61455   1.00
C6       0.33899    0.20784    0.65592   1.00
C6       0.22648    0.21145    0.63803   1.00
C6       0.18890    0.43974    0.62444   1.00
H2       0.18001    0.38169    0.65094   1.00
C6       0.16882    0.46664    0.65958   1.00
H2       0.28537    0.37468    0.67150   1.00
C6       0.37235    0.45773    0.68551   1.00
C6       0.25140    0.42023    0.69352   1.00
H2       0.33866    0.55733    0.63367   1.00
C6       0.32740    0.59688    0.66206   1.00
C6       0.42505    0.58186    0.65281   1.00
C6       0.34003    0.29479    0.59737   1.00
C6       0.42345    0.26523    0.61249   1.00
H2       0.31738    0.19915    0.60995   1.00
H2       0.39449    0.23400    0.65491   1.00
C6       0.32290    0.21181    0.67882   1.00
C6       0.31299    0.13100    0.65124   1.00
H2       0.21057    0.18918    0.65312   1.00
C6       0.19490    0.25837    0.63540   1.00
C6       0.18817    0.15124    0.62268   1.00
H2       0.20355    0.41015    0.61470   1.00
H2       0.21501    0.49234    0.61896   1.00
H2       0.13410    0.41879    0.62234   1.00
H2       0.11483    0.42855    0.66121   1.00
H2       0.18951    0.48297    0.67474   1.00
H2       0.17080    0.51045    0.65198   1.00
H2       0.37277    0.42378    0.69724   1.00
H2       0.41101    0.46444    0.67449   1.00
H2       0.38769    0.50681    0.69264   1.00
H2       0.19794    0.39019    0.68908   1.00
H2       0.25775    0.39389    0.70653   1.00
H2       0.26175    0.47032    0.69873   1.00
H2       0.32211    0.58418    0.67818   1.00
H2       0.36602    0.65079    0.66050   1.00
H2       0.28035    0.59315    0.65664   1.00
H2       0.43972    0.59465    0.66867   1.00
H2       0.44457    0.54919    0.64793   1.00
H2       0.45245    0.62919    0.64412   1.00
H2       0.37969    0.34826    0.59794   1.00
H2       0.34337    0.27551    0.58246   1.00
H2       0.29074    0.29213    0.59811   1.00
H2       0.43274    0.25395    0.59707   1.00
H2       0.46165    0.31798    0.61558   1.00
H2       0.43284    0.23253    0.62253   1.00
H2       0.34904    0.19268    0.68845   1.00
H2       0.34072    0.26438    0.68350   1.00
H2       0.26843    0.18171    0.68205   1.00
H2       0.32395    0.12351    0.63563   1.00
H2       0.33841    0.11161    0.66108   1.00
H2       0.25817    0.09965    0.65383   1.00
H2       0.20936    0.28590    0.62103   1.00
H2       0.13928    0.22940    0.63623   1.00
H2       0.21231    0.29576    0.64753   1.00
H2       0.13336    0.12353    0.62576   1.00
H2       0.19530    0.16963    0.60705   1.00
H2       0.20548    0.11426    0.62376   1.00
C4       0.47507    -0.01969   0.11540   1.00
C4       0.50299    0.03849    0.12847   1.00
C3       0.50471    -0.06150   0.11263   1.00
C3       0.56649    0.06424    0.13862   1.00
C3       0.41471    -0.03689   0.10415   1.00
C3       0.46577    0.07320    0.13174   1.00
C2       0.41739    -0.13444   0.08791   1.00
C2       0.55670    0.15734    0.15430   1.00
C3       0.47693    -0.11707   0.09919   1.00
C3       0.59234    0.12165    0.15133   1.00
C3       0.38676    -0.09391   0.09095   1.00
C3       0.49409    0.13266    0.14391   1.00
H1       0.54723    -0.05295   0.12035   1.00
H1       0.59602    0.04233    0.13698   1.00
C5       0.38250    0.00280    0.10622   1.00
C5       0.40084    0.04887    0.12273   1.00
H1       0.50087    -0.14518   0.09770   1.00
H1       0.63824    0.13762    0.15842   1.00
H1       0.34239    -0.10676   0.08341   1.00
H1       0.46887    0.15943    0.14506   1.00
O3       0.33139    -0.00679   0.09296   1.00
O3       0.35835    0.07303    0.12879   1.00
Si1      0.34988    0.04030    0.07261   1.00
Si1      0.30922    0.03847    0.14847   1.00
C6       0.26865    -0.00438   0.06116   1.00
C6       0.36885    0.12248    0.08034   1.00
C6       0.41269    0.03786    0.05734   1.00
C6       0.31496    -0.02648   0.16165   1.00
C6       0.33264    0.10816    0.16472   1.00
C6       0.22471    0.00861    0.14049   1.00
C6       0.23498    -0.08400   0.06064   1.00
H2       0.23734    0.00590    0.07156   1.00
C6       0.25551    0.01604    0.03957   1.00
H2       0.34090    0.11177    0.09461   1.00
C6       0.44454    0.17599    0.08556   1.00
C6       0.34278    0.16201    0.06702   1.00
H2       0.39441    -0.01681   0.05648   1.00
C6       0.41925    0.06309    0.03489   1.00
C6       0.48840    0.07256    0.06510   1.00
C6       0.30239    -0.09102   0.14948   1.00
C6       0.37777    -0.00716   0.17574   1.00
H2       0.27237    -0.04472   0.17226   1.00
H2       0.38376    0.12167    0.16976   1.00
C6       0.34036    0.17430    0.15465   1.00
C6       0.28908    0.09544    0.18434   1.00
H2       0.21959    0.05406    0.14063   1.00
C6       0.20722    -0.01884   0.11833   1.00
C6       0.16548    -0.04520   0.15409   1.00
H2       0.23164    -0.10489   0.07580   1.00
H2       0.26405    -0.09979   0.05107   1.00
H2       0.18292    -0.10795   0.05475   1.00
H2       0.20338    0.00689    0.03861   1.00
H2       0.28973    0.06941    0.03598   1.00
H2       0.26069    -0.01418   0.02753   1.00
H2       0.44726    0.21869    0.09411   1.00
H2       0.46842    0.15441    0.09502   1.00
H2       0.47495    0.19681    0.07183   1.00
H2       0.28764    0.13252    0.06489   1.00
H2       0.35330    0.20980    0.07424   1.00
H2       0.36759    0.17466    0.05218   1.00
H2       0.42607    0.11432    0.03425   1.00
H2       0.46241    0.06424    0.02704   1.00
H2       0.37470    0.02882    0.02601   1.00
H2       0.51744    0.12648    0.06106   1.00
H2       0.49263    0.06941    0.08138   1.00
H2       0.51449    0.04786    0.05823   1.00
H2       0.34818    -0.08264   0.14157   1.00
H2       0.28756    -0.13418   0.15972   1.00
H2       0.26165    -0.10670   0.13839   1.00
H2       0.36929    -0.05095   0.18493   1.00
H2       0.42440    0.00880    0.16716   1.00
H2       0.38671    0.03332    0.18639   1.00
H2       0.36596    0.21764    0.16501   1.00
H2       0.37148    0.18771    0.14092   1.00
H2       0.29111    0.16883    0.15065   1.00
H2       0.28270    0.05111    0.19274   1.00
H2       0.31422    0.13924    0.19457   1.00
H2       0.23869    0.08801    0.18080   1.00
H2       0.21300    -0.06335   0.11599   1.00
H2       0.15518    -0.03253   0.11421   1.00
H2       0.24100    0.02045    0.10780   1.00
H2       0.11638    -0.05163   0.14926   1.00
H2       0.16195    -0.09505   0.15322   1.00
H2       0.17213    -0.02954   0.16995   1.00
C4       1.01752    0.48614    0.11449   1.00
C4       0.96065    0.45722    0.12806   1.00
C3       1.07165    0.47164    0.11535   1.00
C3       0.95531    0.41593    0.14496   1.00
C3       1.02156    0.53306    0.09934   1.00
C3       0.90561    0.46977    0.12469   1.00
C2       1.13244    0.54932    0.08714   1.00
C2       0.84466    0.40189    0.15507   1.00
C3       1.12773    0.50262    0.10213   1.00
C3       0.89864    0.38848    0.15799   1.00
C3       1.07793    0.56279    0.08590   1.00
C3       0.85035    0.44405    0.13850   1.00
H1       1.07180    0.43796    0.12556   1.00
H1       0.99262    0.40492    0.14837   1.00
C5       0.96912    0.54975    0.09765   1.00
C5       0.90619    0.50836    0.10769   1.00
H1       1.16559    0.49053    0.10357   1.00
H1       0.89728    0.35849    0.16986   1.00
H1       1.07920    0.59490    0.07475   1.00
H1       0.81350    0.45710    0.13662   1.00
O3       0.97853    0.60310    0.08541   1.00
O3       0.84825    0.50979    0.10189   1.00
Si1      1.00847    0.67920    0.09507   1.00
Si1      0.79275    0.44904    0.08735   1.00
C6       1.01957    0.72299    0.07197   1.00
C6       0.94297    0.67833    0.10975   1.00
C6       1.08688    0.70889    0.10782   1.00
C6       0.80811    0.38249    0.08041   1.00
C6       0.71705    0.41540    0.10149   1.00
C6       0.78272    0.48800    0.06551   1.00
C6       1.05610    0.70604    0.05461   1.00
H2       0.96707    0.70251    0.06682   1.00
C6       1.05213    0.80260    0.07149   1.00
H2       0.89736    0.63717    0.10267   1.00
C6       0.93815    0.65905    0.13272   1.00
C6       0.93341    0.74215    0.10911   1.00
H2       1.11617    0.69750    0.09692   1.00
C6       1.13019    0.78734    0.11212   1.00
C6       1.08877    0.67489    0.12841   1.00
C6       0.87643    0.40189    0.06929   1.00
C6       0.79689    0.32660    0.09640   1.00
H2       0.76819    0.35448    0.06922   1.00
H2       0.72576    0.38955    0.11412   1.00
C6       0.70109    0.46864    0.11147   1.00
C6       0.64982    0.36097    0.09093   1.00
H2       0.74756    0.50513    0.07027   1.00
C6       0.84750    0.55369    0.05796   1.00
C6       0.74997    0.44264    0.04627   1.00
H2       1.03019    0.65139    0.05144   1.00
H2       1.10897    0.72256    0.05859   1.00
H2       1.05626    0.73115    0.04043   1.00
H2       1.02943    0.81732    0.05927   1.00
H2       1.04468    0.82315    0.08554   1.00
H2       1.10691    0.82870    0.06853   1.00
H2       0.88832    0.64625    0.13890   1.00
H2       0.94367    0.61453    0.13514   1.00
H2       0.97684    0.70139    0.14162   1.00
H2       0.92604    0.75421    0.09363   1.00
H2       0.88808    0.73310    0.11758   1.00
H2       0.97721    0.78669    0.11577   1.00
H2       1.10017    0.80558    0.12013   1.00
H2       1.17539    0.80035    0.12128   1.00
H2       1.14970    0.81617    0.09816   1.00
H2       1.07895    0.69855    0.14143   1.00
H2       1.05223    0.62082    0.12915   1.00
H2       1.13920    0.68051    0.13066   1.00
H2       0.91835    0.41693    0.07993   1.00
H2       0.87161    0.35828    0.06076   1.00
H2       0.89087    0.44324    0.05849   1.00
H2       0.79901    0.28429    0.08911   1.00
H2       0.83569    0.34618    0.10819   1.00
H2       0.74702    0.30453    0.10365   1.00
H2       0.66005    0.44375    0.12261   1.00
H2       0.74538    0.50815    0.11958   1.00
H2       0.68527    0.49349    0.10029   1.00
H2       0.65559    0.32038    0.08401   1.00
H2       0.60851    0.33681    0.10203   1.00
H2       0.63352    0.38401    0.07926   1.00
H2       0.88800    0.54370    0.05343   1.00
H2       0.83605    0.57683    0.04512   1.00
H2       0.86722    0.59143    0.07000   1.00
H2       0.73700    0.46972    0.03498   1.00
H2       0.78484    0.42874    0.03910   1.00
H2       0.70284    0.39588    0.04992   1.00
C4       0.51415    0.53105    0.11425   1.00
C4       0.54317    0.50330    0.12786   1.00
C3       0.53677    0.60177    0.11276   1.00
C3       0.59335    0.54266    0.14260   1.00
C3       0.45867    0.48594    0.10156   1.00
C3       0.52136    0.43234    0.12680   1.00
C2       0.45056    0.58281    0.08707   1.00
C2       0.59823    0.44310    0.15514   1.00
C3       0.50564    0.62694    0.09963   1.00
C3       0.62061    0.51355    0.15574   1.00
C3       0.42879    0.51247    0.08815   1.00
C3       0.54734    0.40347    0.14076   1.00
H1       0.57669    0.63708    0.12112   1.00
H1       0.61126    0.59353    0.14431   1.00
C5       0.43360    0.41465    0.10230   1.00
C5       0.47335    0.39040    0.11196   1.00
H1       0.52387    0.67854    0.09931   1.00
H1       0.65721    0.54460    0.16598   1.00
H1       0.39029    0.47970    0.07874   1.00
H1       0.52803    0.35188    0.14066   1.00
O3       0.37337    0.37058    0.09266   1.00
O3       0.46176    0.32549    0.10801   1.00
Si1      0.30167    0.33676    0.10524   1.00
Si1      0.51185    0.31622    0.09214   1.00
C6       0.24687    0.29856    0.08433   1.00
C6       0.30064    0.27477    0.12164   1.00
C6       0.28636    0.39780    0.11706   1.00
C6       0.58061    0.39028    0.08141   1.00
C6       0.54364    0.27318    0.10663   1.00
C6       0.45993    0.26069    0.07285   1.00
C6       0.26167    0.34513    0.06522   1.00
H2       0.25926    0.25968    0.07973   1.00
C6       0.16731    0.25995    0.08699   1.00
H2       0.33477    0.26123    0.11387   1.00
C6       0.33047    0.29713    0.14350   1.00
C6       0.23213    0.20610    0.12457   1.00
H2       0.29726    0.43444    0.10483   1.00
C6       0.21155    0.37365    0.12406   1.00
C6       0.33146    0.43969    0.13562   1.00
C6       0.56415    0.43984    0.06939   1.00
C6       0.64493    0.43636    0.09467   1.00
H2       0.59984    0.36895    0.07008   1.00
H2       0.57753    0.31140    0.11753   1.00
C6       0.49014    0.21198    0.11971   1.00
C6       0.58735    0.24748    0.09538   1.00
H2       0.43951    0.20998    0.07947   1.00
C6       0.39601    0.26576    0.06685   1.00
C6       0.49473    0.25935    0.05246   1.00
H2       0.31425    0.36639    0.06004   1.00
H2       0.25295    0.38752    0.06844   1.00
H2       0.22901    0.31628    0.05248   1.00
H2       0.14348    0.21732    0.07633   1.00
H2       0.15103    0.23934    0.10215   1.00
H2       0.14571    0.29262    0.08378   1.00
H2       0.34021    0.25893    0.15043   1.00
H2       0.37901    0.34469    0.14344   1.00
H2       0.29503    0.30308    0.15334   1.00
H2       0.21161    0.18065    0.11010   1.00
H2       0.23952    0.17018    0.13382   1.00
H2       0.19402    0.21445    0.13215   1.00
H2       0.19208    0.32875    0.13381   1.00
H2       0.20783    0.41336    0.13246   1.00
H2       0.17760    0.36190    0.11117   1.00
H2       0.31116    0.41329    0.14999   1.00
H2       0.38381    0.45087    0.13464   1.00
H2       0.33311    0.48872    0.13664   1.00
H2       0.55855    0.47488    0.07946   1.00
H2       0.60550    0.47095    0.05886   1.00
H2       0.51781    0.41266    0.06041   1.00
H2       0.68638    0.47413    0.08523   1.00
H2       0.63467    0.46445    0.10619   1.00
H2       0.66486    0.40703    0.10218   1.00
H2       0.51590    0.19621    0.13065   1.00
H2       0.45802    0.22607    0.12844   1.00
H2       0.45702    0.16778    0.11039   1.00
H2       0.62762    0.28769    0.08628   1.00
H2       0.61230    0.23074    0.10632   1.00
H2       0.55585    0.20423    0.08550   1.00
H2       0.40973    0.31566    0.06066   1.00
H2       0.36453    0.22703    0.05569   1.00
H2       0.36432    0.25723    0.08011   1.00
H2       0.45958    0.21608    0.04307   1.00
H2       0.51064    0.30576    0.04363   1.00
H2       0.53932    0.25393    0.05505   1.00
C4       0.64713    0.80872    0.71800   1.00
C4       0.70530    0.83657    0.70493   1.00
C3       0.60780    0.84059    0.72170   1.00
C3       0.73360    0.90187    0.69573   1.00
C3       0.62732    0.74604    0.72827   1.00
C3       0.73735    0.79739    0.70065   1.00
C2       0.53223    0.75085    0.74543   1.00
C2       0.82399    0.88992    0.67904   1.00
C3       0.55217    0.81270    0.73512   1.00
C3       0.79092    0.92758    0.68299   1.00
C3       0.57026    0.71808    0.74145   1.00
C3       0.79679    0.82543    0.68847   1.00
H1       0.61827    0.88488    0.71470   1.00
H1       0.71367    0.93285    0.69812   1.00
C5       0.66444    0.71154    0.72524   1.00
C5       0.71038    0.73074    0.70867   1.00
H1       0.52593    0.83828    0.73731   1.00
H1       0.80880    0.97487    0.67662   1.00
H1       0.55550    0.67214    0.74828   1.00
H1       0.82166    0.79855    0.68661   1.00
O3       0.65248    0.65762    0.73761   1.00
O3       0.73190    0.68713    0.70160   1.00
Si1      0.69911    0.67096    0.75784   1.00
Si1      0.69599    0.64176    0.68135   1.00
C6       0.65149    0.58823    0.76818   1.00
C6       0.78020    0.68763    0.74972   1.00
C6       0.69967    0.73281    0.77428   1.00
C6       0.63308    0.65288    0.66890   1.00
C6       0.76520    0.66496    0.66492   1.00
C6       0.66269    0.55553    0.68803   1.00
C6       0.57224    0.55758    0.76880   1.00
H2       0.66007    0.55742    0.75711   1.00
C6       0.67056    0.57033    0.78930   1.00
H2       0.76852    0.66190    0.73505   1.00
C6       0.83610    0.76326    0.74542   1.00
C6       0.81734    0.65693    0.76217   1.00
H2       0.64548    0.71662    0.77531   1.00
C6       0.72438    0.73466    0.79659   1.00
C6       0.73726    0.80977    0.76762   1.00
C6       0.56946    0.64119    0.68141   1.00
C6       0.65510    0.71843    0.65582   1.00
H2       0.61331    0.61195    0.65768   1.00
H2       0.78091    0.71738    0.66072   1.00
C6       0.82996    0.66803    0.67451   1.00
C6       0.75084    0.62423    0.64464   1.00
H2       0.70674    0.54813    0.68738   1.00
C6       0.63489    0.53540    0.71008   1.00
C6       0.60746    0.49979    0.67385   1.00
H2       0.55185    0.55762    0.75379   1.00
H2       0.55819    0.58650    0.77905   1.00
H2       0.54631    0.50457    0.77393   1.00
H2       0.65910    0.51734    0.78938   1.00
H2       0.72423    0.60216    0.79303   1.00
H2       0.64126    0.57514    0.80171   1.00
H2       0.87793    0.76537    0.73654   1.00
H2       0.81631    0.79023    0.73662   1.00
H2       0.85776    0.79111    0.75950   1.00
H2       0.78588    0.60165    0.76354   1.00
H2       0.86449    0.66654    0.75471   1.00
H2       0.83075    0.67928    0.77733   1.00
H2       0.77465    0.73906    0.79688   1.00
H2       0.72755    0.77745    0.80522   1.00
H2       0.68873    0.68935    0.80495   1.00
H2       0.79120    0.83620    0.77170   1.00
H2       0.73454    0.81688    0.75147   1.00
H2       0.71440    0.83651    0.77519   1.00
H2       0.57979    0.68630    0.69009   1.00
H2       0.52675    0.62976    0.67131   1.00
H2       0.55208    0.59850    0.69188   1.00
H2       0.61208    0.71336    0.64689   1.00
H2       0.67286    0.76393    0.66510   1.00
H2       0.69509    0.72734    0.64498   1.00
H2       0.87354    0.69379    0.66424   1.00
H2       0.84443    0.69697    0.68868   1.00
H2       0.82218    0.61732    0.67764   1.00
H2       0.70739    0.62120    0.63654   1.00
H2       0.79485    0.64946    0.63449   1.00
H2       0.74110    0.57251    0.64731   1.00
H2       0.59177    0.54307    0.71294   1.00
H2       0.61896    0.48220    0.71336   1.00
H2       0.67474    0.56633    0.72086   1.00
H2       0.59875    0.44914    0.67781   1.00
H2       0.55869    0.49844    0.67511   1.00
H2       0.62318    0.50839    0.65799   1.00
C4       0.16164    0.35018    0.71901   1.00
C4       0.13058    0.29229    0.70584   1.00
C3       0.20776    0.35804    0.73476   1.00
C3       0.13764    0.23381    0.70828   1.00
C3       0.14524    0.40301    0.71662   1.00
C3       0.09021    0.29230    0.68921   1.00
C2       0.21967    0.46718    0.74564   1.00
C2       0.06486    0.17660    0.67883   1.00
C3       0.23570    0.41471    0.74779   1.00
C3       0.10622    0.17781    0.69504   1.00
C3       0.17496    0.46038    0.72968   1.00
C3       0.05662    0.23416    0.67657   1.00
H1       0.22260    0.32294    0.73719   1.00
H1       0.16545    0.22998    0.71981   1.00
C5       0.09950    0.39832    0.70116   1.00
C5       0.08301    0.34997    0.68537   1.00
H1       0.26839    0.41739    0.75901   1.00
H1       0.11360    0.13717    0.69744   1.00
H1       0.16420    0.49877    0.72743   1.00
H1       0.02442    0.23320    0.66554   1.00
O3       0.07507    0.44316    0.70103   1.00
O3       0.05592    0.35668    0.66731   1.00
Si1      0.00270    0.42220    0.71211   1.00
Si1      0.10614    0.38900    0.64773   1.00
C6       0.00772    0.50226    0.70984   1.00
C6       -0.06291   0.36040    0.69677   1.00
C6       -0.00000   0.39886    0.73779   1.00
C6       0.19252    0.41120    0.65036   1.00
C6       0.06698    0.32499    0.62927   1.00
C6       0.10053    0.46021    0.63968   1.00
C6       0.07739    0.56566    0.71616   1.00
H2       0.00414    0.50680    0.69346   1.00
C6       -0.04859   0.51509    0.71925   1.00
H2       -0.03874   0.37155    0.68187   1.00
C6       -0.08762   0.28344    0.70086   1.00
C6       -0.12970   0.36396    0.69399   1.00
H2       0.04843    0.43999    0.74358   1.00
C6       -0.05692   0.39835    0.75143   1.00
C6       -0.00206   0.33025    0.74321   1.00
C6       0.23561    0.46302    0.66740   1.00
C6       0.21170    0.35364    0.65086   1.00
H2       0.21469    0.43771    0.63613   1.00
H2       0.07525    0.28424    0.63476   1.00
C6       -0.01220   0.29200    0.62717   1.00
C6       0.09677    0.34218    0.60729   1.00
H2       0.05372    0.43819    0.63073   1.00
C6       0.09018    0.50217    0.65664   1.00
C6       0.15818    0.51352    0.62555   1.00
H2       0.11999    0.56749    0.70784   1.00
H2       0.08711    0.56479    0.73236   1.00
H2       0.07807    0.61330    0.71285   1.00
H2       -0.05544   0.55093    0.70981   1.00
H2       -0.09790   0.46885    0.72051   1.00
H2       -0.03477   0.53779    0.73435   1.00
H2       -0.11696   0.25200    0.68798   1.00
H2       -0.04521   0.27427    0.70295   1.00
H2       -0.12044   0.26493    0.71421   1.00
H2       -0.11872   0.41355    0.68818   1.00
H2       -0.16393   0.32624    0.68296   1.00
H2       -0.15754   0.35399    0.70828   1.00
H2       -0.10735   0.36686    0.74475   1.00
H2       -0.05768   0.37876    0.76667   1.00
H2       -0.04825   0.44957    0.75375   1.00
H2       -0.05404   0.28705    0.74355   1.00
H2       0.02652    0.31715    0.73277   1.00
H2       0.01979    0.33392    0.75827   1.00
H2       0.22824    0.43801    0.68204   1.00
H2       0.29001    0.48741    0.66388   1.00
H2       0.22342    0.50357    0.66904   1.00
H2       0.26694    0.37551    0.64965   1.00
H2       0.19598    0.32450    0.66490   1.00
H2       0.18947    0.31823    0.63821   1.00
H2       -0.03307   0.24562    0.61799   1.00
H2       -0.03739   0.27713    0.64194   1.00
H2       -0.02645   0.32647    0.61998   1.00
H2       0.15197    0.36374    0.60721   1.00
H2       0.07511    0.29593    0.59801   1.00
H2       0.08484    0.37804    0.59984   1.00
H2       0.13296    0.52497    0.66719   1.00
H2       0.08320    0.54286    0.65031   1.00
H2       0.04455    0.46918    0.66527   1.00
H2       0.14371    0.54906    0.61916   1.00
H2       0.20591    0.54349    0.63384   1.00
H2       0.16796    0.48906    0.61277   1.00
C4       0.18860    0.83826    0.71894   1.00
C4       0.16172    0.86930    0.70579   1.00
C3       0.14952    0.78983    0.73412   1.00
C3       0.09503    0.85977    0.70770   1.00
C3       0.25869    0.85708    0.71717   1.00
C3       0.20326    0.91226    0.68972   1.00
C2       0.24758    0.78035    0.74562   1.00
C2       0.11165    0.93512    0.67885   1.00
C3       0.17824    0.76194    0.74717   1.00
C3       0.07043    0.89124    0.69449   1.00
C3       0.28637    0.82740    0.73023   1.00
C3       0.17854    0.94580    0.67713   1.00
H1       0.09899    0.77323    0.73609   1.00
H1       0.06252    0.83003    0.71882   1.00
C5       0.30058    0.90521    0.70231   1.00
C5       0.26942    0.92207    0.68641   1.00
H1       0.14761    0.72752    0.75795   1.00
H1       0.02157    0.88201    0.69649   1.00
H1       0.33623    0.83997    0.72841   1.00
H1       0.21043    0.97977    0.66653   1.00
O3       0.37016    0.93165    0.70284   1.00
O3       0.30491    0.95193    0.66878   1.00
Si1      0.41853    1.00321    0.71474   1.00
Si1      0.29081    0.90427    0.64876   1.00
C6       0.49530    1.00121    0.71300   1.00
C6       0.42181    1.06948    0.69987   1.00
C6       0.39445    1.00217    0.74027   1.00
C6       0.22836    0.81693    0.65038   1.00
C6       0.26626    0.94393    0.63039   1.00
C6       0.36967    0.91342    0.64132   1.00
C6       0.49071    0.93190    0.71882   1.00
H2       0.50534    1.00690    0.69671   1.00
C6       0.56248    1.05783    0.72326   1.00
H2       0.41118    1.04702    0.68473   1.00
C6       0.36729    1.09140    0.70372   1.00
C6       0.49126    1.13784    0.69802   1.00
H2       0.38811    0.95373    0.74570   1.00
C6       0.44816    1.05845    0.75468   1.00
C6       0.32607    1.00121    0.74522   1.00
C6       0.23682    0.77300    0.66719   1.00
C6       0.15095    0.79532    0.65020   1.00
H2       0.23524    0.79697    0.63605   1.00
H2       0.21607    0.93344    0.63546   1.00
C6       0.31060    1.02350    0.62913   1.00
C6       0.25709    0.91678    0.60814   1.00
H2       0.39423    0.96127    0.63285   1.00
C6       0.42053    0.92349    0.65871   1.00
C6       0.36899    0.85833    0.62680   1.00
H2       0.45176    0.88961    0.70994   1.00
H2       0.47841    0.92013    0.73488   1.00
H2       0.53889    0.93329    0.71586   1.00
H2       0.60674    1.06716    0.71418   1.00
H2       0.56366    1.10618    0.72486   1.00
H2       0.57025    1.04285    0.73833   1.00
H2       0.36560    1.12160    0.69102   1.00
H2       0.31613    1.04772    0.70516   1.00
H2       0.37910    1.12258    0.71738   1.00
H2       0.53161    1.12911    0.69243   1.00
H2       0.48775    1.17257    0.68719   1.00
H2       0.50675    1.16414    0.71261   1.00
H2       0.46638    1.10938    0.74846   1.00
H2       0.42721    1.05678    0.76977   1.00
H2       0.49149    1.05119    0.75725   1.00
H2       0.33307    1.05248    0.74595   1.00
H2       0.28592    0.97288    0.73429   1.00
H2       0.30662    0.97739    0.76000   1.00
H2       0.21691    0.77792    0.68174   1.00
H2       0.20869    0.71896    0.66311   1.00
H2       0.28983    0.78665    0.66929   1.00
H2       0.11916    0.74008    0.64839   1.00
H2       0.13510    0.80866    0.66422   1.00
H2       0.13822    0.81813    0.63760   1.00
H2       0.28498    1.04413    0.61989   1.00
H2       0.31847    1.04689    0.64412   1.00
H2       0.36049    1.04005    0.62239   1.00
H2       0.22489    0.86143    0.60747   1.00
H2       0.23237    0.93823    0.59883   1.00
H2       0.30613    0.93104    0.60112   1.00
H2       0.40053    0.87959    0.66884   1.00
H2       0.46949    0.93276    0.65278   1.00
H2       0.43072    0.96772    0.66772   1.00
H2       0.42008    0.87504    0.62088   1.00
H2       0.35170    0.80992    0.63466   1.00
H2       0.33601    0.84899    0.61372   1.00
