data_IRMOF10_interpen_symm_ligand4lp_label_f_1.

_audit_creation_method             'generated by an auxiliary program of Tobunporous'

_symmetry_space_group_name_H-M     'P 1'
_symmetry_Int_Tables_number        1
_symmetry_cell_setting             triclinic

_cell_length_a                    22.6523
_cell_length_b                    22.6523
_cell_length_c                    65.9502
_cell_angle_alpha                 90.0000
_cell_angle_beta                  90.0000
_cell_angle_gamma                 120.0000

loop_
_atom_site_label
_atom_site_fract_x
_atom_site_fract_y
_atom_site_fract_z
_atom_site_occupancy
O1       0.00000    -0.00000   0.62500   1.00
Zn1      0.00000    -0.00000   0.59589   1.00
Zn1      0.94848    1.04288    0.63392   1.00
Zn1      0.09439    0.05152    0.63392   1.00
Zn1      -0.04288   0.90561    0.63392   1.00
O2       0.93860    0.02610    0.58587   1.00
O2       0.08750    0.06140    0.58587   1.00
O2       -0.02610   0.91250    0.58587   1.00
O2       0.91305    0.07161    0.61181   1.00
O2       0.00462    0.12022    0.65110   1.00
O2       0.87413    0.98074    0.65071   1.00
O2       0.15856    0.08695    0.61181   1.00
O2       0.10660    0.12587    0.65071   1.00
O2       0.11559    0.99538    0.65110   1.00
O2       -0.07161   0.84144    0.61181   1.00
O2       0.87978    0.88441    0.65110   1.00
O2       0.01926    0.89340    0.65071   1.00
C1       0.91390    0.06020    0.59358   1.00
C1       0.14630    0.08610    0.59358   1.00
C1       -0.06020   0.85370    0.59358   1.00
C1       0.06663    0.14397    0.65673   1.00
C1       0.85603    0.92267    0.65673   1.00
C1       0.07733    0.93337    0.65673   1.00
O1       -0.00000   0.00000    0.87500   1.00
Zn1      -0.00000   0.00000    0.90411   1.00
Zn1      1.04288    0.94848    0.86608   1.00
Zn1      0.05152    0.09439    0.86608   1.00
Zn1      0.90561    -0.04288   0.86608   1.00
O2       0.02610    0.93860    0.91413   1.00
O2       0.06140    0.08750    0.91413   1.00
O2       0.91250    -0.02610   0.91413   1.00
O2       0.07161    0.91305    0.88819   1.00
O2       0.12022    0.00462    0.84890   1.00
O2       0.98074    0.87413    0.84929   1.00
O2       0.08695    0.15856    0.88819   1.00
O2       0.12587    0.10660    0.84929   1.00
O2       0.99538    0.11559    0.84890   1.00
O2       0.84144    -0.07161   0.88819   1.00
O2       0.88441    0.87978    0.84890   1.00
O2       0.89340    0.01926    0.84929   1.00
C1       0.06020    0.91390    0.90642   1.00
C1       0.08610    0.14630    0.90642   1.00
C1       0.85370    -0.06020   0.90642   1.00
C1       0.14397    0.06663    0.84327   1.00
C1       0.92267    0.85603    0.84327   1.00
C1       0.93337    0.07733    0.84327   1.00
O1       0.00000    0.00000    0.37500   1.00
Zn1      0.00000    0.00000    0.40411   1.00
Zn1      0.05152    -0.04288   0.36608   1.00
Zn1      0.90561    0.94848    0.36608   1.00
Zn1      1.04288    0.09439    0.36608   1.00
O2       0.06140    -0.02610   0.41413   1.00
O2       0.91250    0.93860    0.41413   1.00
O2       0.02610    0.08750    0.41413   1.00
O2       0.08695    -0.07161   0.38819   1.00
O2       0.99538    0.87978    0.34890   1.00
O2       0.12587    0.01926    0.34929   1.00
O2       0.84144    0.91305    0.38819   1.00
O2       0.89340    0.87413    0.34929   1.00
O2       0.88441    0.00462    0.34890   1.00
O2       0.07161    0.15856    0.38819   1.00
O2       0.12022    0.11559    0.34890   1.00
O2       0.98074    0.10660    0.34929   1.00
C1       0.08610    -0.06020   0.40642   1.00
C1       0.85370    0.91390    0.40642   1.00
C1       0.06020    0.14630    0.40642   1.00
C1       0.93337    0.85603    0.34327   1.00
C1       0.14397    0.07733    0.34327   1.00
C1       0.92267    0.06663    0.34327   1.00
O1       0.00000    0.00000    0.12500   1.00
Zn1      0.00000    0.00000    0.09589   1.00
Zn1      -0.04288   0.05152    0.13392   1.00
Zn1      0.94848    0.90561    0.13392   1.00
Zn1      0.09439    1.04288    0.13392   1.00
O2       -0.02610   0.06140    0.08587   1.00
O2       0.93860    0.91250    0.08587   1.00
O2       0.08750    0.02610    0.08587   1.00
O2       -0.07161   0.08695    0.11181   1.00
O2       0.87978    0.99538    0.15110   1.00
O2       0.01926    0.12587    0.15071   1.00
O2       0.91305    0.84144    0.11181   1.00
O2       0.87413    0.89340    0.15071   1.00
O2       0.00462    0.88441    0.15110   1.00
O2       0.15856    0.07161    0.11181   1.00
O2       0.11559    0.12022    0.15110   1.00
O2       0.10660    0.98074    0.15071   1.00
C1       -0.06020   0.08610    0.09358   1.00
C1       0.91390    0.85370    0.09358   1.00
C1       0.14630    0.06020    0.09358   1.00
C1       0.85603    0.93337    0.15673   1.00
C1       0.07733    0.14397    0.15673   1.00
C1       0.06663    0.92267    0.15673   1.00
O1       0.66667    0.33333    0.95833   1.00
Zn1      0.66667    0.33333    0.92922   1.00
Zn1      0.61515    0.37621    0.96725   1.00
Zn1      0.76106    0.38485    0.96725   1.00
Zn1      -0.37621   0.23894    0.96725   1.00
O2       0.60527    0.35943    0.91920   1.00
O2       0.75417    0.39473    0.91920   1.00
O2       0.64057    0.24583    0.91920   1.00
O2       0.57972    0.40494    0.94514   1.00
O2       0.67129    0.45355    0.98443   1.00
O2       0.54080    0.31407    0.98404   1.00
O2       0.82523    0.42028    0.94514   1.00
O2       0.77327    0.45920    0.98404   1.00
O2       -0.21774   0.32871    0.98443   1.00
O2       0.59506    0.17477    0.94514   1.00
O2       0.54645    0.21774    0.98443   1.00
O2       -0.31407   0.22673    0.98404   1.00
C1       0.58057    0.39353    0.92691   1.00
C1       0.81297    0.41943    0.92691   1.00
C1       0.60647    0.18703    0.92691   1.00
C1       0.73330    0.47730    0.99006   1.00
C1       0.52270    0.25600    0.99006   1.00
C1       -0.25600   0.26670    0.99006   1.00
O1       0.66667    0.33333    0.20833   1.00
Zn1      0.66667    0.33333    0.23744   1.00
Zn1      0.70954    0.28182    0.19942   1.00
Zn1      0.71818    0.42773    0.19942   1.00
Zn1      0.57227    0.29046    0.19942   1.00
O2       0.69277    0.27193    0.24746   1.00
O2       0.72807    0.42083    0.24746   1.00
O2       0.57917    0.30723    0.24746   1.00
O2       0.73828    0.24638    0.22152   1.00
O2       0.78688    0.33796    0.18224   1.00
O2       0.64740    0.20747    0.18263   1.00
O2       0.75362    0.49189    0.22152   1.00
O2       0.79253    0.43994    0.18263   1.00
O2       0.66204    0.44893    0.18224   1.00
O2       0.50811    0.26172    0.22152   1.00
O2       0.55107    0.21312    0.18224   1.00
O2       0.56006    0.35260    0.18263   1.00
C1       0.72687    0.24723    0.23975   1.00
C1       0.75277    0.47963    0.23975   1.00
C1       0.52037    0.27313    0.23975   1.00
C1       0.81063    0.39997    0.17661   1.00
C1       0.58933    0.18937    0.17661   1.00
C1       0.60003    0.41067    0.17661   1.00
O1       0.66667    0.33333    0.70833   1.00
Zn1      0.66667    0.33333    0.73744   1.00
Zn1      0.71818    0.29046    0.69942   1.00
Zn1      0.57227    0.28182    0.69942   1.00
Zn1      0.70954    0.42773    0.69942   1.00
O2       0.72807    0.30723    0.74746   1.00
O2       0.57917    0.27193    0.74746   1.00
O2       0.69277    0.42083    0.74746   1.00
O2       0.75362    0.26172    0.72152   1.00
O2       0.66204    0.21312    0.68224   1.00
O2       0.79253    0.35260    0.68263   1.00
O2       0.50811    0.24638    0.72152   1.00
O2       0.56006    0.20747    0.68263   1.00
O2       0.55107    0.33796    0.68224   1.00
O2       0.73828    0.49189    0.72152   1.00
O2       0.78688    0.44893    0.68224   1.00
O2       0.64740    0.43994    0.68263   1.00
C1       0.75277    0.27313    0.73975   1.00
C1       0.52037    0.24723    0.73975   1.00
C1       0.72687    0.47963    0.73975   1.00
C1       0.60003    0.18937    0.67661   1.00
C1       0.81063    0.41067    0.67661   1.00
C1       0.58933    0.39997    0.67661   1.00
O1       0.66667    0.33333    0.45833   1.00
Zn1      0.66667    0.33333    0.42922   1.00
Zn1      -0.37621   0.38485    0.46725   1.00
Zn1      0.61515    0.23894    0.46725   1.00
Zn1      0.76106    0.37621    0.46725   1.00
O2       0.64057    0.39473    0.41920   1.00
O2       0.60527    0.24583    0.41920   1.00
O2       0.75417    0.35943    0.41920   1.00
O2       0.59506    0.42028    0.44514   1.00
O2       0.54645    0.32871    0.48443   1.00
O2       -0.31407   0.45920    0.48404   1.00
O2       0.57972    0.17477    0.44514   1.00
O2       0.54080    0.22673    0.48404   1.00
O2       0.67129    0.21774    0.48443   1.00
O2       0.82523    0.40494    0.44514   1.00
O2       -0.21774   0.45355    0.48443   1.00
O2       0.77327    0.31407    0.48404   1.00
C1       0.60647    0.41943    0.42691   1.00
C1       0.58057    0.18703    0.42691   1.00
C1       0.81297    0.39353    0.42691   1.00
C1       0.52270    0.26670    0.49006   1.00
C1       -0.25600   0.47730    0.49006   1.00
C1       0.73330    0.25600    0.49006   1.00
O1       0.33333    0.66667    0.29167   1.00
Zn1      0.33333    0.66667    0.26256   1.00
Zn1      0.28182    0.70954    0.30058   1.00
Zn1      0.42773    0.71818    0.30058   1.00
Zn1      0.29046    0.57227    0.30058   1.00
O2       0.27193    0.69277    0.25254   1.00
O2       0.42083    0.72807    0.25254   1.00
O2       0.30723    0.57917    0.25254   1.00
O2       0.24638    0.73828    0.27848   1.00
O2       0.33796    0.78688    0.31776   1.00
O2       0.20747    0.64740    0.31737   1.00
O2       0.49189    0.75362    0.27848   1.00
O2       0.43994    0.79253    0.31737   1.00
O2       0.44893    0.66204    0.31776   1.00
O2       0.26172    0.50811    0.27848   1.00
O2       0.21312    0.55107    0.31776   1.00
O2       0.35260    0.56006    0.31737   1.00
C1       0.24723    0.72687    0.26025   1.00
C1       0.47963    0.75277    0.26025   1.00
C1       0.27313    0.52037    0.26025   1.00
C1       0.39997    0.81063    0.32339   1.00
C1       0.18937    0.58933    0.32339   1.00
C1       0.41067    0.60003    0.32339   1.00
O1       0.33333    0.66667    0.54167   1.00
Zn1      0.33333    0.66667    0.57078   1.00
Zn1      0.37621    0.61515    0.53275   1.00
Zn1      0.38485    0.76106    0.53275   1.00
Zn1      0.23894    -0.37621   0.53275   1.00
O2       0.35943    0.60527    0.58080   1.00
O2       0.39473    0.75417    0.58080   1.00
O2       0.24583    0.64057    0.58080   1.00
O2       0.40494    0.57972    0.55486   1.00
O2       0.45355    0.67129    0.51557   1.00
O2       0.31407    0.54080    0.51596   1.00
O2       0.42028    0.82523    0.55486   1.00
O2       0.45920    0.77327    0.51596   1.00
O2       0.32871    -0.21774   0.51557   1.00
O2       0.17477    0.59506    0.55486   1.00
O2       0.21774    0.54645    0.51557   1.00
O2       0.22673    -0.31407   0.51596   1.00
C1       0.39353    0.58057    0.57309   1.00
C1       0.41943    0.81297    0.57309   1.00
C1       0.18703    0.60647    0.57309   1.00
C1       0.47730    0.73330    0.50994   1.00
C1       0.25600    0.52270    0.50994   1.00
C1       0.26670    -0.25600   0.50994   1.00
O1       0.33333    0.66667    0.04167   1.00
Zn1      0.33333    0.66667    0.07078   1.00
Zn1      0.38485    -0.37621   0.03275   1.00
Zn1      0.23894    0.61515    0.03275   1.00
Zn1      0.37621    0.76106    0.03275   1.00
O2       0.39473    0.64057    0.08080   1.00
O2       0.24583    0.60527    0.08080   1.00
O2       0.35943    0.75417    0.08080   1.00
O2       0.42028    0.59506    0.05486   1.00
O2       0.32871    0.54645    0.01557   1.00
O2       0.45920    -0.31407   0.01596   1.00
O2       0.17477    0.57972    0.05486   1.00
O2       0.22673    0.54080    0.01596   1.00
O2       0.21774    0.67129    0.01557   1.00
O2       0.40494    0.82523    0.05486   1.00
O2       0.45355    -0.21774   0.01557   1.00
O2       0.31407    0.77327    0.01596   1.00
C1       0.41943    0.60647    0.07309   1.00
C1       0.18703    0.58057    0.07309   1.00
C1       0.39353    0.81297    0.07309   1.00
C1       0.26670    0.52270    0.00994   1.00
C1       0.47730    -0.25600   0.00994   1.00
C1       0.25600    0.73330    0.00994   1.00
O1       0.33333    0.66667    0.79167   1.00
Zn1      0.33333    0.66667    0.76256   1.00
Zn1      0.29046    0.71818    0.80058   1.00
Zn1      0.28182    0.57227    0.80058   1.00
Zn1      0.42773    0.70954    0.80058   1.00
O2       0.30723    0.72807    0.75254   1.00
O2       0.27193    0.57917    0.75254   1.00
O2       0.42083    0.69277    0.75254   1.00
O2       0.26172    0.75362    0.77848   1.00
O2       0.21312    0.66204    0.81776   1.00
O2       0.35260    0.79253    0.81737   1.00
O2       0.24638    0.50811    0.77848   1.00
O2       0.20747    0.56006    0.81737   1.00
O2       0.33796    0.55107    0.81776   1.00
O2       0.49189    0.73828    0.77848   1.00
O2       0.44893    0.78688    0.81776   1.00
O2       0.43994    0.64740    0.81737   1.00
C1       0.27313    0.75277    0.76025   1.00
C1       0.24723    0.52037    0.76025   1.00
C1       0.47963    0.72687    0.76025   1.00
C1       0.18937    0.60003    0.82339   1.00
C1       0.41067    0.81063    0.82339   1.00
C1       0.39997    0.58933    0.82339   1.00
C4       -0.17728   0.63220    0.53772   1.00
C4       -0.15082   0.68657    0.55215   1.00
C3       -0.16312   0.57764    0.53876   1.00
C3       -0.11443   0.68651    0.56978   1.00
C3       -0.21953   0.63160    0.52151   1.00
C3       -0.16073   0.74354    0.54910   1.00
C2       -0.23348   0.52049    0.50913   1.00
C2       -0.09439   0.79803    0.58082   1.00
C3       -0.19057   0.52326    0.52499   1.00
C3       -0.08674   0.74062    0.58364   1.00
C3       -0.24679   0.57509    0.50786   1.00
C3       -0.13139   0.79779    0.56352   1.00
H1       -0.13177   0.57571    0.54946   1.00
H1       -0.10727   0.64682    0.57331   1.00
C5       -0.23326   0.68657    0.51917   1.00
C5       -0.19939   0.74517    0.53209   1.00
H1       -0.17862   0.48534    0.52661   1.00
H1       -0.06080   0.73761    0.59601   1.00
H1       -0.27742   0.57261    0.49622   1.00
H1       -0.13694   0.83937    0.56179   1.00
C6       -0.28380   0.68172    0.50329   1.00
C6       -0.20329   0.80885    0.52787   1.00
H2       -0.32828   0.63065    0.50364   1.00
H2       -0.15278   0.85339    0.52975   1.00
H2       -0.30614   0.71298    0.50720   1.00
H2       -0.21346   0.81271    0.51195   1.00
C6       -0.25231   0.70147    0.48148   1.00
C6       -0.25794   0.81412    0.54113   1.00
H2       -0.22129   0.67779    0.47854   1.00
H2       -0.25444   0.80050    0.55681   1.00
C6       -0.30268   0.68402    0.46325   1.00
C6       -0.25620   0.88411    0.54140   1.00
H2       -0.21653   0.75633    0.48135   1.00
H2       -0.30825   0.77495    0.53589   1.00
C6       -0.34836   0.60590    0.46032   1.00
C6       -0.19056   0.94067    0.55170   1.00
C6       -0.34851   0.71629    0.46592   1.00
C6       -0.26178   0.90740    0.51974   1.00
C6       -0.26032   0.71345    0.44355   1.00
C6       -0.31805   0.87574    0.55390   1.00
H2       -0.31752   0.58143    0.45872   1.00
H2       -0.18454   0.92531    0.56691   1.00
H2       -0.38264   0.58239    0.47313   1.00
H2       -0.14518   0.95218    0.54299   1.00
H2       -0.37991   0.59425    0.44676   1.00
H2       -0.19200   0.98795    0.55308   1.00
H2       -0.37995   0.70795    0.45249   1.00
H2       -0.26544   0.95365    0.52020   1.00
H2       -0.38279   0.69388    0.47881   1.00
H2       -0.21707   0.91854    0.51070   1.00
H2       -0.31760   0.77112    0.46843   1.00
H2       -0.30685   0.86787    0.51199   1.00
H2       -0.22750   0.69172    0.44083   1.00
H2       -0.31619   0.86000    0.56943   1.00
H2       -0.29333   0.70216    0.43033   1.00
H2       -0.31881   0.92353    0.55464   1.00
H2       -0.22796   0.76875    0.44452   1.00
H2       -0.36609   0.83739    0.54714   1.00
C4       0.36506    0.18645    0.53684   1.00
C4       0.30965    0.15841    0.55092   1.00
C3       0.43304    0.23455    0.54273   1.00
C3       0.31943    0.17092    0.57217   1.00
C3       0.35294    0.16627    0.51601   1.00
C3       0.24151    0.11605    0.54373   1.00
C2       0.47773    0.24065    0.50860   1.00
C2       0.19733    0.10449    0.57928   1.00
C3       0.48779    0.26064    0.52909   1.00
C3       0.26505    0.14513    0.58594   1.00
C3       0.41016    0.19374    0.50263   1.00
C3       0.18751    0.09108    0.55824   1.00
H1       0.44521    0.25296    0.55711   1.00
H1       0.36649    0.19869    0.57847   1.00
C5       0.28515    0.12021    0.50900   1.00
C5       0.22873    0.09930    0.52261   1.00
H1       0.53565    0.29497    0.53431   1.00
H1       0.27547    0.15623    0.60107   1.00
H1       0.40367    0.18026    0.48774   1.00
H1       0.13835    0.06118    0.55370   1.00
C6       0.27410    0.09370    0.48744   1.00
C6       0.15602    0.06053    0.51493   1.00
H2       0.31251    0.07984    0.48375   1.00
H2       0.12690    0.08163    0.52186   1.00
H2       0.22727    0.04497    0.48598   1.00
H2       0.15286    0.07029    0.49894   1.00
C6       0.27332    0.14485    0.47157   1.00
C6       0.12119    -0.01838   0.51836   1.00
H2       0.31500    0.19633    0.47482   1.00
H2       0.13261    -0.02847   0.53366   1.00
C6       0.27753    0.12994    0.44859   1.00
C6       0.04218    -0.06178   0.51523   1.00
H2       0.22667    0.14696    0.47397   1.00
H2       0.14549    -0.03791   0.50817   1.00
C6       0.34739    0.13683    0.44319   1.00
C6       0.00302    -0.04474   0.53135   1.00
C6       0.21964    0.05801    0.44245   1.00
C6       0.02098    -0.05149   0.49376   1.00
C6       0.26975    0.18313    0.43574   1.00
C6       0.01996    -0.13834   0.51761   1.00
H2       0.38941    0.18672    0.44764   1.00
H2       0.01770    -0.05043   0.54669   1.00
H2       0.35445    0.09807    0.45076   1.00
H2       0.01303    0.00733    0.52974   1.00
H2       0.35162    0.13102    0.42691   1.00
H2       -0.05194   -0.07847   0.52992   1.00
H2       0.22009    0.04999    0.42614   1.00
H2       -0.03346   -0.08555   0.49123   1.00
H2       0.22543    0.01843    0.45004   1.00
H2       0.03123    0.00059    0.49177   1.00
H2       0.16994    0.05132    0.44648   1.00
H2       0.04890    -0.06178   0.48212   1.00
H2       0.30993    0.23491    0.43934   1.00
H2       0.03314    -0.14853   0.53264   1.00
H2       0.27282    0.17508    0.41953   1.00
H2       -0.03504   -0.17078   0.51568   1.00
H2       0.22072    0.17986    0.43858   1.00
H2       0.04488    -0.15386   0.50636   1.00
C4       0.81410    0.17276    0.53467   1.00
C4       0.83977    0.14237    0.54849   1.00
C3       0.83707    0.24394    0.53477   1.00
C3       0.89511    0.18182    0.56190   1.00
C3       0.76343    0.13114    0.52011   1.00
C3       0.80963    0.06982    0.54911   1.00
C2       0.76468    0.23481    0.50608   1.00
C2       0.88955    0.08082    0.57714   1.00
C3       0.81345    0.27419    0.52086   1.00
C3       0.91910    0.15210    0.57587   1.00
C3       0.74098    0.16400    0.50614   1.00
C3       0.83532    0.04155    0.56364   1.00
H1       0.87133    0.27638    0.54508   1.00
H1       0.92050    0.23366    0.56188   1.00
C5       0.73626    0.05876    0.51982   1.00
C5       0.75567    0.02757    0.53540   1.00
H1       0.83224    0.32585    0.52167   1.00
H1       0.95901    0.18336    0.58518   1.00
H1       0.70535    0.13619    0.49547   1.00
H1       0.81491    -0.00983   0.56463   1.00
C6       0.68815    0.01639    0.50300   1.00
C6       0.71945    -0.04922   0.53767   1.00
H2       0.70762    0.04261    0.48859   1.00
H2       0.70933    -0.06223   0.55369   1.00
H2       0.68911    -0.03057   0.50053   1.00
H2       0.66814    -0.07338   0.53146   1.00
C6       0.61265    -0.00139   0.50674   1.00
C6       0.75908    -0.08211   0.52774   1.00
H2       0.61202    0.04395    0.51212   1.00
H2       0.81318    -0.05191   0.53158   1.00
C6       0.56171    -0.03156   0.48853   1.00
C6       0.73469    -0.15836   0.53296   1.00
H2       0.59251    -0.03765   0.51930   1.00
H2       0.75672    -0.07764   0.51130   1.00
C6       0.58067    0.02121    0.47118   1.00
C6       0.74665    -0.16746   0.55564   1.00
C6       0.55842    -0.09687   0.47998   1.00
C6       0.65835    -0.20556   0.52777   1.00
C6       0.48937    -0.05086   0.49615   1.00
C6       0.77683    -0.18173   0.52013   1.00
H2       0.58451    0.06839    0.47680   1.00
H2       0.79991    -0.13396   0.55987   1.00
H2       0.62928    0.03396    0.46426   1.00
H2       0.71523    -0.15591   0.56553   1.00
H2       0.54231    0.00139    0.45920   1.00
H2       0.73392    -0.21981   0.55881   1.00
H2       0.51928    -0.12019   0.46828   1.00
H2       0.64312    -0.25905   0.53010   1.00
H2       0.60688    -0.08528   0.47315   1.00
H2       0.62604    -0.19434   0.53739   1.00
H2       0.54655    -0.13434   0.49198   1.00
H2       0.64827    -0.19909   0.51198   1.00
H2       0.48871    -0.00626   0.50216   1.00
H2       0.83122    -0.15041   0.52338   1.00
H2       0.45196    -0.07181   0.48391   1.00
H2       0.76194    -0.23468   0.52335   1.00
H2       0.47249    -0.08908   0.50816   1.00
H2       0.76943    -0.17781   0.50393   1.00
C4       0.64214    -0.16995   0.96563   1.00
C4       0.69786    -0.13897   0.95171   1.00
C3       0.60830    -0.24091   0.97024   1.00
C3       0.72822    -0.17515   0.94308   1.00
C3       0.61859    -0.12921   0.97543   1.00
C3       0.72499    -0.06916   0.94604   1.00
C2       0.53162    -0.23204   0.99453   1.00
C2       0.80836    -0.07737   0.92279   1.00
C3       0.55495    -0.27106   0.98432   1.00
C3       0.78155    -0.14551   0.92898   1.00
C3       0.56436    -0.16181   0.98975   1.00
C3       0.77908    -0.04098   0.93156   1.00
H1       0.62071    -0.27348   0.96340   1.00
H1       0.71317    -0.22420   0.94687   1.00
C5       0.64874    -0.05805   0.97076   1.00
C5       0.69844    -0.02930   0.95487   1.00
H1       0.53285    -0.32246   0.98704   1.00
H1       0.80105    -0.17441   0.92326   1.00
H1       0.54653    -0.13445   0.99713   1.00
H1       0.79940    0.00834    0.92705   1.00
C6       0.62832    -0.01413   0.98280   1.00
C6       0.72260    0.04218    0.94715   1.00
H2       0.62599    -0.02679   0.99884   1.00
H2       0.72452    0.04204    0.93063   1.00
H2       0.66815    0.03915    0.98271   1.00
H2       0.68500    0.05777    0.94982   1.00
C6       0.56003    -0.01971   0.97529   1.00
C6       0.79247    0.09683    0.95650   1.00
H2       0.52233    -0.07319   0.97251   1.00
H2       0.82780    0.07715    0.95654   1.00
C6       0.52613    0.01104    0.98921   1.00
C6       0.82972    0.16913    0.94644   1.00
H2       0.56972    0.00502    0.96047   1.00
H2       0.78379    0.10289    0.97247   1.00
C6       0.50069    -0.02866   1.00947   1.00
C6       0.85378    0.16654    0.92459   1.00
C6       0.57565    0.08739    0.99381   1.00
C6       0.78372    0.20174    0.94591   1.00
C6       0.46316    0.00532    0.97800   1.00
C6       0.89403    0.21618    0.95919   1.00
H2       0.46646    -0.08298   1.00674   1.00
H2       0.88549    0.14274    0.92440   1.00
H2       0.54293    -0.02329   1.01873   1.00
H2       0.81078    0.13765    0.91446   1.00
H2       0.47299    -0.00989   1.01844   1.00
H2       0.88375    0.21766    0.91824   1.00
H2       0.55005    0.10955    1.00229   1.00
H2       0.81173    0.25395    0.94022   1.00
H2       0.61871    0.09391    1.00291   1.00
H2       0.73995    0.17313    0.93599   1.00
H2       0.59543    0.11628    0.97979   1.00
H2       0.76491    0.20287    0.96106   1.00
H2       0.42614    -0.04780   0.97457   1.00
H2       0.92866    0.19579    0.95987   1.00
H2       0.43741    0.02578    0.98720   1.00
H2       0.92209    0.26728    0.95268   1.00
H2       0.47802    0.03354    0.96373   1.00
H2       0.88025    0.22118    0.97470   1.00
C4       0.18643    0.36503    0.96317   1.00
C4       0.15839    0.30961    0.94910   1.00
C3       0.23430    0.43306    0.95726   1.00
C3       0.17066    0.31941    0.92783   1.00
C3       0.16648    0.35288    0.98402   1.00
C3       0.11628    0.24145    0.95629   1.00
C2       0.24061    0.47771    0.99141   1.00
C2       0.10448    0.19729    0.92073   1.00
C3       0.26038    0.48782    0.97089   1.00
C3       0.14487    0.26503    0.91406   1.00
C3       0.19393    0.41010    0.99740   1.00
C3       0.09131    0.18745    0.94178   1.00
H1       0.25254    0.44528    0.94286   1.00
H1       0.19824    0.36649    0.92152   1.00
C5       0.12066    0.28504    0.99104   1.00
C5       0.09978    0.22864    0.97743   1.00
H1       0.29454    0.53572    0.96566   1.00
H1       0.15579    0.27547    0.89892   1.00
H1       0.18061    0.40357    1.01230   1.00
H1       0.06159    0.13827    0.94633   1.00
C6       0.09437    0.27392    1.01263   1.00
C6       0.06128    0.15593    0.98511   1.00
H2       0.08038    0.31221    1.01636   1.00
H2       0.08246    0.12693    0.97814   1.00
H2       0.04574    0.22700    1.01412   1.00
H2       0.07124    0.15281    1.00109   1.00
C6       0.14579    0.27334    1.02843   1.00
C6       -0.01769   0.12086    0.98176   1.00
H2       0.19718    0.31513    1.02515   1.00
H2       -0.02800   0.13222    0.96648   1.00
C6       0.13108    0.27750    1.05144   1.00
C6       -0.06083   0.04184    0.98489   1.00
H2       0.14805    0.22678    1.02601   1.00
H2       -0.03723   0.14505    0.99199   1.00
C6       0.13779    0.34725    1.05687   1.00
C6       -0.04379   0.00281    0.96873   1.00
C6       0.05930    0.21945    1.05763   1.00
C6       -0.05022   0.02073    1.00634   1.00
C6       0.18453    0.26994    1.06422   1.00
C6       -0.13748   0.01938    0.98260   1.00
H2       0.18756    0.38938    1.05238   1.00
H2       -0.04971   0.01743    0.95340   1.00
H2       0.09885    0.35415    1.04935   1.00
H2       0.00835    0.01300    0.97028   1.00
H2       0.13213    0.35146    1.07316   1.00
H2       -0.07737   -0.05217   0.97017   1.00
H2       0.05144    0.21988    1.07395   1.00
H2       -0.08411   -0.03373   1.00888   1.00
H2       0.01954    0.22507    1.05010   1.00
H2       0.00194    0.03116    1.00827   1.00
H2       0.05273    0.16981    1.05358   1.00
H2       -0.06050   0.04856    1.01801   1.00
H2       0.23622    0.31023    1.06057   1.00
H2       -0.14790   0.03249    0.96759   1.00
H2       0.17664    0.27297    1.08043   1.00
H2       -0.16976   -0.03564   0.98453   1.00
H2       0.18141    0.22098    1.06135   1.00
H2       -0.15300   0.04420    0.99389   1.00
C4       0.17276    0.81410    0.96533   1.00
C4       0.14236    0.83977    0.95151   1.00
C3       0.24394    0.83709    0.96524   1.00
C3       0.18181    0.89512    0.93811   1.00
C3       0.13113    0.76341    0.97989   1.00
C3       0.06982    0.80961    0.95088   1.00
C2       0.23481    0.76468    0.99392   1.00
C2       0.08081    0.88954    0.92286   1.00
C3       0.27419    0.81347    0.97915   1.00
C3       0.15209    0.91912    0.92414   1.00
C3       0.16399    0.74096    0.99386   1.00
C3       0.04154    0.83530    0.93636   1.00
H1       0.27639    0.87137    0.95493   1.00
H1       0.23365    0.92053    0.93814   1.00
C5       0.05875    0.73621    0.98017   1.00
C5       0.02756    0.75562    0.96459   1.00
H1       0.32586    0.83228    0.97834   1.00
H1       0.18335    0.95904    0.91483   1.00
H1       0.13618    0.70532    1.00452   1.00
H1       -0.00984   0.81487    0.93536   1.00
C6       0.01637    0.68807    0.99698   1.00
C6       -0.04923   0.71938    0.96231   1.00
H2       0.04258    0.70753    1.01140   1.00
H2       -0.06222   0.70928    0.94629   1.00
H2       -0.03061   0.68902    0.99945   1.00
H2       -0.07338   0.66807    0.96852   1.00
C6       -0.00138   0.61259    0.99323   1.00
C6       -0.08215   0.75898    0.97224   1.00
H2       0.04398    0.61198    0.98785   1.00
H2       -0.05196   0.81309    0.96841   1.00
C6       -0.03155   0.56163    1.01144   1.00
C6       -0.15840   0.73457    0.96701   1.00
H2       -0.03763   0.59245    0.98067   1.00
H2       -0.07770   0.75660    0.98868   1.00
C6       0.02120    0.58058    1.02879   1.00
C6       -0.16748   0.74655    0.94434   1.00
C6       -0.09688   0.55830    1.01999   1.00
C6       -0.20559   0.65823    0.97220   1.00
C6       -0.05083   0.48930    1.00382   1.00
C6       -0.18180   0.77669    0.97985   1.00
H2       0.06839    0.58444    1.02318   1.00
H2       -0.13399   0.79982    0.94011   1.00
H2       0.03392    0.62918    1.03572   1.00
H2       -0.15591   0.71516    0.93445   1.00
H2       0.00138    0.54221    1.04078   1.00
H2       -0.21983   0.73381    0.94116   1.00
H2       -0.12021   0.51915    1.03169   1.00
H2       -0.25907   0.64298    0.96987   1.00
H2       -0.08532   0.60675    1.02682   1.00
H2       -0.19434   0.62593    0.96258   1.00
H2       -0.13434   0.54644    1.00798   1.00
H2       -0.19913   0.64814    0.98798   1.00
H2       -0.00621   0.48866    0.99780   1.00
H2       -0.15050   0.83108    0.97660   1.00
H2       -0.07177   0.45188    1.01605   1.00
H2       -0.23475   0.76178    0.97663   1.00
H2       -0.08904   0.47242    0.99180   1.00
H2       -0.17790   0.76927    0.99605   1.00
C4       0.17565    0.36859    0.46204   1.00
C4       0.14618    0.31569    0.44717   1.00
C3       0.23784    0.38594    0.47217   1.00
C3       0.18027    0.28141    0.43986   1.00
C3       0.14231    0.40604    0.46719   1.00
C3       0.08017    0.29572    0.43911   1.00
C2       0.23704    0.47778    0.49139   1.00
C2       0.08523    0.20643    0.41784   1.00
C3       0.26788    0.43906    0.48633   1.00
C3       0.15070    0.22821    0.42572   1.00
C3       0.17477    0.46001    0.48160   1.00
C3       0.05169    0.24105    0.42482   1.00
H1       0.26331    0.36018    0.46979   1.00
H1       0.22815    0.29426    0.44438   1.00
C5       0.07814    0.38903    0.45813   1.00
C5       0.04458    0.33028    0.44526   1.00
H1       0.31292    0.44921    0.49304   1.00
H1       0.17782    0.20536    0.42112   1.00
H1       0.15287    0.48809    0.48555   1.00
H1       0.00468    0.22509    0.41885   1.00
C6       0.04710    0.43364    0.46207   1.00
C6       -0.02808   0.30391    0.43828   1.00
H2       0.08689    0.48699    0.46104   1.00
H2       -0.05637   0.24854    0.43965   1.00
H2       0.01300    0.42989    0.44990   1.00
H2       -0.05588   0.31856    0.44863   1.00
C6       0.00785    0.41767    0.48275   1.00
C6       -0.03293   0.32764    0.41631   1.00
H2       0.03801    0.41153    0.49464   1.00
H2       0.00266    0.32221    0.40634   1.00
C6       -0.01315   0.46991    0.49054   1.00
C6       -0.10454   0.29170    0.40581   1.00
H2       -0.03824   0.36783    0.48136   1.00
H2       -0.01451   0.38235    0.41688   1.00
C6       0.05004    0.53949    0.49602   1.00
C6       -0.12972   0.21543    0.40143   1.00
C6       -0.05706   0.48137    0.47473   1.00
C6       -0.15855   0.29746    0.41875   1.00
C6       -0.05636   0.44089    0.51011   1.00
C6       -0.09846   0.32725    0.38515   1.00
H2       0.08270    0.53301    0.50692   1.00
H2       -0.09218   0.20956    0.39259   1.00
H2       0.08061    0.56481    0.48267   1.00
H2       -0.13915   0.18639    0.41540   1.00
H2       0.03484    0.57392    0.50275   1.00
H2       -0.17734   0.19205    0.39287   1.00
H2       -0.07548   0.51400    0.48086   1.00
H2       -0.20697   0.27659    0.41066   1.00
H2       -0.02752   0.50610    0.46115   1.00
H2       -0.16823   0.26924    0.43291   1.00
H2       -0.10117   0.43298    0.47028   1.00
H2       -0.14142   0.35060    0.42241   1.00
H2       -0.02739   0.43251    0.52187   1.00
H2       -0.06137   0.32401    0.37532   1.00
H2       -0.07192   0.47585    0.51622   1.00
H2       -0.14722   0.30360    0.37716   1.00
H2       -0.10252   0.39232    0.50712   1.00
H2       -0.08216   0.38107    0.38726   1.00
C4       0.64086    0.81466    0.46516   1.00
C4       0.69507    0.84247    0.45068   1.00
C3       0.64272    0.77969    0.48290   1.00
C3       0.75782    0.84359    0.45396   1.00
C3       0.58209    0.82152    0.46201   1.00
C3       0.68716    0.87055    0.43214   1.00
C2       0.53278    0.76132    0.49496   1.00
C2       0.80345    0.89566    0.42098   1.00
C3       0.59056    0.75409    0.49742   1.00
C3       0.81029    0.86903    0.43955   1.00
C3       0.53025    0.79506    0.47721   1.00
C3       0.74167    0.89561    0.41780   1.00
H1       0.68175    0.77090    0.48584   1.00
H1       0.76802    0.82658    0.46704   1.00
C5       0.57600    0.85370    0.44402   1.00
C5       0.62630    0.87346    0.42834   1.00
H1       0.59509    0.72960    0.50992   1.00
H1       0.85419    0.86813    0.44280   1.00
H1       0.48791    0.79937    0.47558   1.00
H1       0.73777    0.91554    0.40439   1.00
C6       0.51712    0.86707    0.44192   1.00
C6       0.61559    0.89655    0.40780   1.00
H2       0.51011    0.88683    0.45624   1.00
H2       0.63032    0.87274    0.39600   1.00
H2       0.52938    0.90930    0.43169   1.00
H2       0.56179    0.87609    0.40452   1.00
C6       0.44948    0.80306    0.43464   1.00
C6       0.65364    0.97607    0.40545   1.00
H2       0.44190    0.75799    0.44294   1.00
H2       0.70534    0.99802    0.41151   1.00
C6       0.38206    0.80609    0.43624   1.00
C6       0.65891    1.00561    0.38363   1.00
H2       0.45645    0.79349    0.41882   1.00
H2       0.62810    0.99537    0.41523   1.00
C6       0.36243    0.80864    0.45863   1.00
C6       0.70404    0.98969    0.36954   1.00
C6       0.38756    0.86818    0.42466   1.00
C6       0.58769    0.97795    0.37384   1.00
C6       0.32327    0.74040    0.42657   1.00
C6       0.69277    1.08436    0.38520   1.00
H2       0.35922    0.76604    0.46731   1.00
H2       0.75437    1.00760    0.37619   1.00
H2       0.39961    0.85571    0.46603   1.00
H2       0.68104    0.93518    0.36676   1.00
H2       0.31305    0.80596    0.45963   1.00
H2       0.71127    1.01446    0.35482   1.00
H2       0.33884    0.86712    0.42464   1.00
H2       0.59156    1.00251    0.35926   1.00
H2       0.42508    0.91589    0.43172   1.00
H2       0.56350    0.92325    0.37111   1.00
H2       0.40274    0.86838    0.40894   1.00
H2       0.55441    0.98723    0.38366   1.00
H2       0.31674    0.69493    0.43435   1.00
H2       0.74364    1.10659    0.39184   1.00
H2       0.27489    0.73992    0.42744   1.00
H2       0.69800    1.10745    0.37028   1.00
H2       0.33350    0.73638    0.41060   1.00
H2       0.66251    1.09888    0.39465   1.00
C4       0.18662    -0.17861   0.46310   1.00
C4       0.16132    -0.15126   0.44812   1.00
C3       0.15726    -0.19781   0.48281   1.00
C3       0.10072    -0.14789   0.45103   1.00
C3       0.24348    -0.18735   0.45847   1.00
C3       0.19729    -0.12618   0.42941   1.00
C2       0.23559    -0.23703   0.49308   1.00
C2       0.11194    -0.09290   0.41825   1.00
C3       0.18068    -0.22646   0.49733   1.00
C3       0.07687    -0.11932   0.43662   1.00
C3       0.26554    -0.21705   0.47364   1.00
C3       0.17151    -0.09713   0.41518   1.00
H1       0.11818    -0.19108   0.48743   1.00
H1       0.07126    -0.16669   0.46364   1.00
C5       0.27696    -0.16631   0.43919   1.00
C5       0.25702    -0.13080   0.42526   1.00
H1       0.15714    -0.23949   0.51124   1.00
H1       0.03298    -0.11816   0.43967   1.00
H1       0.30550    -0.22450   0.47087   1.00
H1       0.19593    -0.07834   0.40177   1.00
C6       0.33227    -0.18248   0.43370   1.00
C6       0.29860    -0.09757   0.40639   1.00
H2       0.31601    -0.23474   0.43819   1.00
H2       0.30413    -0.04720   0.40460   1.00
H2       0.33738    -0.18485   0.41738   1.00
H2       0.35134    -0.08502   0.40818   1.00
C6       0.40359    -0.13072   0.44291   1.00
C6       0.26849    -0.14207   0.38682   1.00
H2       0.39739    -0.12042   0.45873   1.00
H2       0.21326    -0.16319   0.38644   1.00
C6       0.46067    -0.15047   0.44210   1.00
C6       0.29795    -0.10709   0.36588   1.00
H2       0.42222    -0.08211   0.43506   1.00
H2       0.27571    -0.18614   0.38818   1.00
C6       0.44294    -0.21322   0.45564   1.00
C6       0.28016    -0.05059   0.36126   1.00
C6       0.47381    -0.16526   0.42012   1.00
C6       0.37629    -0.07620   0.36485   1.00
C6       0.52791    -0.08963   0.45031   1.00
C6       0.26541    -0.16182   0.34895   1.00
H2       0.43227    -0.20483   0.47120   1.00
H2       0.22524    -0.07053   0.36219   1.00
H2       0.39839    -0.25899   0.44998   1.00
H2       0.30496    -0.00830   0.37189   1.00
H2       0.48502    -0.22368   0.45609   1.00
H2       0.29677    -0.02980   0.34606   1.00
H2       0.51691    -0.17417   0.41954   1.00
H2       0.39565    -0.05629   0.34973   1.00
H2       0.42950    -0.21058   0.41410   1.00
H2       0.40206    -0.03414   0.37554   1.00
H2       0.48501    -0.12240   0.41018   1.00
H2       0.39030    -0.11461   0.36846   1.00
H2       0.52159    -0.07752   0.46591   1.00
H2       0.20999    -0.18480   0.34887   1.00
H2       0.56931    -0.10117   0.45017   1.00
H2       0.28409    -0.13971   0.33398   1.00
H2       0.54388    -0.04404   0.44111   1.00
H2       0.27733    -0.20250   0.35113   1.00
C4       0.35786    0.16990    0.03437   1.00
C4       0.30274    0.14288    0.04854   1.00
C3       0.37425    0.12739    0.02253   1.00
C3       0.25587    0.07164    0.05033   1.00
C3       0.39875    0.24207    0.03175   1.00
C3       0.29328    0.18808    0.06152   1.00
C2       0.46720    0.22434    0.00498   1.00
C2       0.19326    0.08792    0.07789   1.00
C3       0.42700    0.15364    0.00821   1.00
C3       0.20298    0.04485    0.06461   1.00
C3       0.45176    0.26673    0.01692   1.00
C3       0.23901    0.15871    0.07593   1.00
H1       0.34891    0.07579    0.02402   1.00
H1       0.25800    0.03659    0.04119   1.00
C5       0.38653    0.28754    0.04384   1.00
C5       0.33708    0.26046    0.05984   1.00
H1       0.43608    0.12026    0.00010   1.00
H1       0.17107    -0.00702   0.06520   1.00
H1       0.48163    0.31769    0.01452   1.00
H1       0.23095    0.18916    0.08552   1.00
C6       0.42533    0.36330    0.03941   1.00
C6       0.33109    0.30721    0.07508   1.00
H2       0.42691    0.37103    0.02306   1.00
H2       0.32588    0.28590    0.09023   1.00
H2       0.39752    0.38819    0.04448   1.00
H2       0.37850    0.35545    0.07647   1.00
C6       0.49853    0.40083    0.04896   1.00
C6       0.27185    0.32178    0.07013   1.00
H2       0.52338    0.37068    0.04642   1.00
H2       0.22620    0.27426    0.06582   1.00
C6       0.54862    0.47544    0.04174   1.00
C6       0.25106    0.35658    0.08701   1.00
H2       0.49275    0.40150    0.06540   1.00
H2       0.28639    0.35380    0.05658   1.00
C6       0.56831    0.47773    0.01910   1.00
C6       0.21935    0.30939    0.10569   1.00
C6       0.51807    0.52254    0.04499   1.00
C6       0.31260    0.42515    0.09397   1.00
C6       0.61516    0.50435    0.05443   1.00
C6       0.19628    0.37154    0.07820   1.00
H2       0.58904    0.44411    0.01623   1.00
H2       0.17641    0.26007    0.10123   1.00
H2       0.52448    0.46201    0.00919   1.00
H2       0.25649    0.30014    0.11340   1.00
H2       0.60681    0.52921    0.01460   1.00
H2       0.20073    0.33211    0.11674   1.00
H2       0.55519    0.57536    0.04128   1.00
H2       0.29664    0.45130    0.10465   1.00
H2       0.47366    0.50721    0.03534   1.00
H2       0.35073    0.41704    0.10156   1.00
H2       0.50245    0.52076    0.06074   1.00
H2       0.33676    0.45881    0.08104   1.00
H2       0.63924    0.47327    0.05250   1.00
H2       0.15130    0.32457    0.07324   1.00
H2       0.65204    0.55635    0.04984   1.00
H2       0.17975    0.39551    0.08949   1.00
H2       0.60479    0.50535    0.07055   1.00
H2       0.21610    0.40581    0.06519   1.00
C4       0.81410    0.64135    0.03467   1.00
C4       0.84205    0.69582    0.04906   1.00
C3       0.77157    0.63873    0.01835   1.00
C3       0.83541    0.75485    0.04694   1.00
C3       0.82860    0.58693    0.03643   1.00
C3       0.87829    0.69202    0.06631   1.00
C2       0.76026    0.53295    0.00497   1.00
C2       0.89566    0.80447    0.07867   1.00
C3       0.74569    0.58643    0.00388   1.00
C3       0.86105    0.80742    0.06132   1.00
C3       0.80157    0.53482    0.02132   1.00
C3       0.90329    0.74647    0.08067   1.00
H1       0.75723    0.67437    0.01649   1.00
H1       0.81227    0.76219    0.03476   1.00
C5       0.86875    0.58528    0.05302   1.00
C5       0.88910    0.63522    0.06883   1.00
H1       0.71554    0.58762    -0.00756   1.00
H1       0.85434    0.84851    0.05895   1.00
H1       0.81115    0.49552    0.02198   1.00
H1       0.92891    0.74538    0.09320   1.00
C6       0.88973    0.53143    0.05350   1.00
C6       0.92109    0.62830    0.08819   1.00
H2       0.90645    0.52659    0.03841   1.00
H2       0.89849    0.63988    0.10109   1.00
H2       0.93587    0.54791    0.06235   1.00
H2       0.90656    0.57555    0.09119   1.00
C6       0.83250    0.46100    0.06183   1.00
C6       1.00083    0.67290    0.08831   1.00
H2       0.78353    0.44867    0.05510   1.00
H2       1.01623    0.72375    0.08246   1.00
C6       0.84239    0.39788    0.05885   1.00
C6       1.03825    0.68174    0.10902   1.00
H2       0.82693    0.46697    0.07804   1.00
H2       1.02054    0.65071    0.07740   1.00
C6       0.83985    0.37904    0.03612   1.00
C6       1.02138    0.72286    0.12447   1.00
C6       0.91044    0.41023    0.06818   1.00
C6       1.02021    0.61202    0.11843   1.00
C6       0.78324    0.33566    0.06978   1.00
C6       1.11636    0.72221    0.10520   1.00
H2       0.79286    0.37108    0.02900   1.00
H2       1.03250    0.77195    0.11815   1.00
H2       0.88262    0.41896    0.02773   1.00
H2       0.96781    0.69532    0.12881   1.00
H2       0.84203    0.33227    0.03429   1.00
H2       1.05128    0.73282    0.13832   1.00
H2       0.91458    0.36430    0.06732   1.00
H2       1.05021    0.61879    0.13209   1.00
H2       0.95395    0.45055    0.06011   1.00
H2       0.96656    0.58333    0.12270   1.00
H2       0.91416    0.42499    0.08408   1.00
H2       1.03027    0.58145    0.10769   1.00
H2       0.73391    0.32428    0.06360   1.00
H2       1.13195    0.77229    0.09873   1.00
H2       0.78766    0.29008    0.06802   1.00
H2       1.14479    0.73011    0.11927   1.00
H2       0.78316    0.34531    0.08600   1.00
H2       1.13170    0.69506    0.09470   1.00
C4       -0.17861   0.18663    0.03690   1.00
C4       -0.15125   0.16134    0.05188   1.00
C3       -0.19792   0.15720    0.01720   1.00
C3       -0.14798   0.10068    0.04899   1.00
C3       -0.18724   0.24355    0.04152   1.00
C3       -0.12607   0.19737    0.07057   1.00
C2       -0.23704   0.23559    0.00693   1.00
C2       -0.09289   0.11196    0.08175   1.00
C3       -0.22656   0.18062    0.00268   1.00
C3       -0.11941   0.07683    0.06340   1.00
C3       -0.21695   0.26561    0.02635   1.00
C3       -0.09702   0.17159    0.08481   1.00
H1       -0.19126   0.11807    0.01259   1.00
H1       -0.16686   0.07118    0.03638   1.00
C5       -0.16610   0.27711    0.06079   1.00
C5       -0.13060   0.25717    0.07471   1.00
H1       -0.23967   0.15702    -0.01122   1.00
H1       -0.11833   0.03289    0.06036   1.00
H1       -0.22434   0.30563    0.02911   1.00
H1       -0.07816   0.19606    0.09821   1.00
C6       -0.18217   0.33251    0.06626   1.00
C6       -0.09725   0.29880    0.09357   1.00
H2       -0.23443   0.31628    0.06179   1.00
H2       -0.04691   0.30427    0.09534   1.00
H2       -0.18446   0.33768    0.08259   1.00
H2       -0.08465   0.35155    0.09177   1.00
C6       -0.13038   0.40376    0.05703   1.00
C6       -0.14169   0.26881    0.11315   1.00
H2       -0.12016   0.39748    0.04121   1.00
H2       -0.16287   0.21358    0.11355   1.00
C6       -0.15003   0.46091    0.05783   1.00
C6       -0.10661   0.29832    0.13408   1.00
H2       -0.08174   0.42237    0.06487   1.00
H2       -0.18572   0.27609    0.11181   1.00
C6       -0.21282   0.44320    0.04431   1.00
C6       -0.05016   0.28047    0.13869   1.00
C6       -0.16471   0.47417    0.07981   1.00
C6       -0.07563   0.37668    0.13508   1.00
C6       -0.08918   0.52808    0.04959   1.00
C6       -0.16128   0.26590    0.15103   1.00
H2       -0.20450   0.43245    0.02875   1.00
H2       -0.07017   0.22552    0.13778   1.00
H2       -0.25860   0.39871    0.04999   1.00
H2       -0.00790   0.30518    0.12805   1.00
H2       -0.22321   0.48533    0.04385   1.00
H2       -0.02931   0.29711    0.15388   1.00
H2       -0.17355   0.51731    0.08038   1.00
H2       -0.05565   0.39608    0.15019   1.00
H2       -0.21003   0.42991    0.08585   1.00
H2       -0.03361   0.40236    0.12438   1.00
H2       -0.12183   0.48536    0.08974   1.00
H2       -0.11402   0.39073    0.13148   1.00
H2       -0.07714   0.52168    0.03399   1.00
H2       -0.18432   0.21048    0.15113   1.00
H2       -0.10064   0.56953    0.04972   1.00
H2       -0.13910   0.28463    0.16599   1.00
H2       -0.04355   0.54403    0.05878   1.00
H2       -0.20193   0.27788    0.14885   1.00
C4       0.49374    0.96447    0.87134   1.00
C4       0.52023    1.01766    0.88615   1.00
C3       0.53320    0.93703    0.86317   1.00
C3       0.58528    1.04211    0.89537   1.00
C3       0.42530    0.93713    0.86424   1.00
C3       0.48081    1.04810    0.89218   1.00
C2       0.43915    0.85461    0.84212   1.00
C2       0.57529    1.12751    0.91537   1.00
C3       0.50675    0.88355    0.84908   1.00
C3       0.61223    1.09557    0.90946   1.00
C3       0.40018    0.88243    0.84997   1.00
C3       0.51026    1.10267    0.90650   1.00
H1       0.58286    0.95533    0.86699   1.00
H1       0.61524    1.02152    0.89234   1.00
C5       0.38403    0.96460    0.87127   1.00
C5       0.41378    1.02373    0.88407   1.00
H1       0.53775    0.86585    0.84383   1.00
H1       0.65956    1.11102    0.91550   1.00
H1       0.35163    0.86134    0.84466   1.00
H1       0.48400    1.12591    0.91105   1.00
C6       0.30957    0.93046    0.86530   1.00
C6       0.37568    1.06110    0.88892   1.00
H2       0.28709    0.87539    0.86667   1.00
H2       0.41064    1.11581    0.88768   1.00
H2       0.27979    0.94056    0.87624   1.00
H2       0.33827    1.05293    0.87731   1.00
C6       0.29801    0.95148    0.84364   1.00
C6       0.33937    1.04145    0.91010   1.00
H2       0.33487    0.95096    0.83304   1.00
H2       0.37387    1.03992    0.92141   1.00
C6       0.22537    0.90854    0.83406   1.00
C6       0.31147    1.08727    0.91868   1.00
H2       0.31041    1.00467    0.84438   1.00
H2       0.29693    0.98913    0.90906   1.00
C6       0.20806    0.83440    0.82945   1.00
C6       0.37004    1.16023    0.92370   1.00
C6       0.16942    0.90699    0.84794   1.00
C6       0.26113    1.09187    0.90374   1.00
C6       0.22403    0.94198    0.81363   1.00
C6       0.27250    1.05499    0.93871   1.00
H2       0.24722    0.83375    0.81994   1.00
H2       0.40709    1.15870    0.93397   1.00
H2       0.20400    0.80645    0.84331   1.00
H2       0.39705    1.18752    0.91007   1.00
H2       0.15945    0.80631    0.82150   1.00
H2       0.35046    1.19028    0.93097   1.00
H2       0.11971    0.88112    0.84050   1.00
H2       0.23829    1.11982    0.91045   1.00
H2       0.16501    0.87977    0.86201   1.00
H2       0.28709    1.11847    0.88989   1.00
H2       0.18113    0.95860    0.85177   1.00
H2       0.22014    1.04110    0.89962   1.00
H2       0.26222    0.94370    0.80316   1.00
H2       0.30603    1.05122    0.94989   1.00
H2       0.17434    0.91350    0.80626   1.00
H2       0.25238    1.08548    0.94538   1.00
H2       0.23454    0.99409    0.81593   1.00
H2       0.22959    1.00381    0.93608   1.00
C4       0.02580    0.51868    0.86817   1.00
C4       -0.03033   0.49266    0.88197   1.00
C3       0.07884    0.50247    0.86982   1.00
C3       -0.04114   0.44312    0.89703   1.00
C3       0.02993    0.56275    0.85202   1.00
C3       -0.07805   0.51644    0.88086   1.00
C2       0.13759    0.56856    0.83968   1.00
C2       -0.14193   0.44247    0.91053   1.00
C3       0.13289    0.52630    0.85597   1.00
C3       -0.09499   0.41897    0.91096   1.00
C3       0.08562    0.58563    0.83817   1.00
C3       -0.13199   0.49084    0.89540   1.00
H1       0.08056    0.47328    0.88127   1.00
H1       -0.01067   0.42221    0.89832   1.00
C5       -0.02040   0.58318    0.85008   1.00
C5       -0.07148   0.56415    0.86548   1.00
H1       0.16939    0.51254    0.85796   1.00
H1       -0.09983   0.38344    0.92151   1.00
H1       0.09006    0.61666    0.82642   1.00
H1       -0.16666   0.50688    0.89519   1.00
C6       -0.01945   0.62382    0.83172   1.00
C6       -0.11792   0.59433    0.86583   1.00
H2       -0.01022   0.60199    0.81818   1.00
H2       -0.12211   0.60831    0.88136   1.00
H2       -0.06962   0.61693    0.82856   1.00
H2       -0.09491   0.64350    0.85824   1.00
C6       0.03301    0.70198    0.83363   1.00
C6       -0.18973   0.54629    0.85626   1.00
H2       0.08116    0.70923    0.83967   1.00
H2       -0.20904   0.49414    0.86164   1.00
C6       0.04943    0.74649    0.81402   1.00
C6       -0.24678   0.56503    0.85979   1.00
H2       0.01389    0.72287    0.84516   1.00
H2       -0.18275   0.54430    0.83992   1.00
C6       0.08701    0.72722    0.79796   1.00
C6       -0.26768   0.55835    0.88244   1.00
C6       -0.01595   0.74023    0.80445   1.00
C6       -0.22435   0.63817    0.85235   1.00
C6       0.09731    0.82236    0.81984   1.00
C6       -0.31095   0.51453    0.84752   1.00
H2       0.13286    0.73005    0.80435   1.00
H2       -0.28274   0.50757    0.88825   1.00
H2       0.05461    0.67568    0.79226   1.00
H2       -0.22601   0.59545    0.89182   1.00
H2       0.10241    0.76158    0.78496   1.00
H2       -0.31064   0.56689    0.88454   1.00
H2       -0.00350   0.77510    0.79166   1.00
H2       -0.26613   0.64895    0.85353   1.00
H2       -0.04942   0.68874    0.79882   1.00
H2       -0.18217   0.67610    0.86143   1.00
H2       -0.04414   0.75215    0.81558   1.00
H2       -0.20800   0.64467    0.83654   1.00
H2       0.14470    0.82974    0.82649   1.00
H2       -0.32935   0.46203    0.85234   1.00
H2       0.11063    0.85552    0.80658   1.00
H2       -0.35248   0.52529    0.84961   1.00
H2       0.07306    0.83945    0.83085   1.00
H2       -0.29979   0.51783    0.83132   1.00
C4       0.48047    0.50560    0.86793   1.00
C4       0.50597    0.47508    0.88176   1.00
C3       0.50637    0.57731    0.86725   1.00
C3       0.56376    0.51449    0.89436   1.00
C3       0.42695    0.46357    0.85416   1.00
C3       0.47313    0.40244    0.88324   1.00
C2       0.43126    0.56769    0.83929   1.00
C2       0.55557    0.41349    0.91046   1.00
C3       0.48284    0.60756    0.85331   1.00
C3       0.58769    0.48477    0.90835   1.00
C3       0.40468    0.49642    0.84013   1.00
C3       0.49887    0.37419    0.89776   1.00
H1       0.54284    0.61019    0.87699   1.00
H1       0.59104    0.56627    0.89369   1.00
C5       0.39687    0.39082    0.85471   1.00
C5       0.41650    0.36005    0.87035   1.00
H1       0.50381    0.65960    0.85354   1.00
H1       0.62944    0.51602    0.91705   1.00
H1       0.36706    0.46830    0.83001   1.00
H1       0.47659    0.32277    0.89935   1.00
C6       0.34547    0.34759    0.83866   1.00
C6       0.37777    0.28360    0.87356   1.00
H2       0.36361    0.37146    0.82389   1.00
H2       0.36962    0.27300    0.88976   1.00
H2       0.34372    0.29912    0.83657   1.00
H2       0.32572    0.26062    0.86800   1.00
C6       0.27166    0.33374    0.84319   1.00
C6       0.41325    0.24655    0.86357   1.00
H2       0.27408    0.38092    0.84820   1.00
H2       0.46797    0.27525    0.86670   1.00
C6       0.21791    0.30294    0.82569   1.00
C6       0.38650    0.17046    0.86962   1.00
H2       0.25209    0.29937    0.85621   1.00
H2       0.40877    0.24899    0.84713   1.00
C6       0.23644    0.35361    0.80777   1.00
C6       0.40101    0.16366    0.89224   1.00
C6       0.21021    0.23508    0.81771   1.00
C6       0.30909    0.12531    0.86548   1.00
C6       0.14766    0.28790    0.83408   1.00
C6       0.42448    0.14264    0.85664   1.00
H2       0.24333    0.40247    0.81295   1.00
H2       0.45513    0.19582    0.89574   1.00
H2       0.28336    0.36323    0.80033   1.00
H2       0.37246    0.17843    0.90230   1.00
H2       0.19636    0.33362    0.79629   1.00
H2       0.38649    0.11115    0.89595   1.00
H2       0.16925    0.21159    0.80655   1.00
H2       0.29196    0.07166    0.86837   1.00
H2       0.25695    0.24354    0.81038   1.00
H2       0.27961    0.13976    0.87527   1.00
H2       0.19856    0.19898    0.83011   1.00
H2       0.29729    0.13028    0.84975   1.00
H2       0.15011    0.33441    0.83972   1.00
H2       0.47944    0.17238    0.85916   1.00
H2       0.10841    0.26668    0.82234   1.00
H2       0.40782    0.08964    0.86041   1.00
H2       0.13110    0.25129    0.84653   1.00
H2       0.41509    0.14480    0.84049   1.00
C4       0.29796    0.15813    0.29534   1.00
C4       0.35166    0.18446    0.28069   1.00
C3       0.25725    0.18877    0.29905   1.00
C3       0.36371    0.23869    0.26727   1.00
C3       0.28379    0.09901    0.30688   1.00
C3       0.39540    0.15600    0.27916   1.00
C2       0.18720    0.10300    0.32425   1.00
C2       0.46229    0.23998    0.25173   1.00
C3       0.20332    0.16195    0.31298   1.00
C3       0.41750    0.26592    0.25329   1.00
C3       0.22818    0.07308    0.32084   1.00
C3       0.44983    0.18544    0.26480   1.00
H1       0.26569    0.23211    0.29192   1.00
H1       0.33344    0.26000    0.26701   1.00
C5       0.32485    0.06762    0.30443   1.00
C5       0.38403    0.09945    0.29168   1.00
H1       0.17571    0.18627    0.31490   1.00
H1       0.42363    0.30521    0.24409   1.00
H1       0.21623    0.03087    0.32922   1.00
H1       0.48229    0.16691    0.26337   1.00
C6       0.30481    0.00103    0.31512   1.00
C6       0.43494    0.07464    0.29144   1.00
H2       0.24994    -0.03272   0.31367   1.00
H2       0.48639    0.11853    0.29173   1.00
H2       0.32442    -0.02787   0.30731   1.00
H2       0.43375    0.04897    0.30549   1.00
C6       0.32823    0.01068    0.33785   1.00
C6       0.42464    0.02612    0.27316   1.00
H2       0.31746    0.04771    0.34509   1.00
H2       0.41585    0.04704    0.25929   1.00
C6       0.29767    -0.05440   0.35159   1.00
C6       0.48278    0.00955    0.26876   1.00
H2       0.38373    0.03429    0.33802   1.00
H2       0.37738    -0.02189   0.27578   1.00
C6       0.21989    -0.08506   0.35482   1.00
C6       0.54924    0.07372    0.26169   1.00
C6       0.31120    -0.10981   0.34265   1.00
C6       0.49839    -0.02134   0.28757   1.00
C6       0.33239    -0.03386   0.37273   1.00
C6       0.45911    -0.04372   0.25136   1.00
H2       0.20853    -0.04686   0.36082   1.00
H2       0.53970    0.09740    0.24861   1.00
H2       0.19177    -0.10447   0.34070   1.00
H2       0.57107    0.11176    0.27368   1.00
H2       0.19996    -0.12747   0.36553   1.00
H2       0.58786    0.06076    0.25731   1.00
H2       0.29404    -0.15288   0.35303   1.00
H2       0.53544    -0.03720   0.28393   1.00
H2       0.28398    -0.12945   0.32838   1.00
H2       0.51969    0.01579    0.29983   1.00
H2       0.36549    -0.08914   0.33982   1.00
H2       0.45212    -0.06580   0.29312   1.00
H2       0.32376    0.00476    0.37982   1.00
H2       0.44807    -0.02411   0.23761   1.00
H2       0.31236    -0.07763   0.38294   1.00
H2       0.49828    -0.05663   0.24763   1.00
H2       0.38735    -0.01308   0.37149   1.00
H2       0.41303    -0.09081   0.25560   1.00
C4       0.86589    0.70101    0.29576   1.00
C4       0.84065    0.64838    0.28078   1.00
C3       0.91101    0.70539    0.31151   1.00
C3       0.86423    0.60083    0.27921   1.00
C3       0.84571    0.75158    0.29523   1.00
C3       0.78993    0.64236    0.26668   1.00
C2       0.91964    0.80934    0.32548   1.00
C2       0.78722    0.53985    0.25113   1.00
C3       0.93740    0.75803    0.32587   1.00
C3       0.83818    0.54798    0.26492   1.00
C3       0.87403    0.80457    0.31007   1.00
C3       0.76445    0.58759    0.25243   1.00
H1       0.92586    0.67010    0.31326   1.00
H1       0.90172    0.60323    0.28826   1.00
C5       0.79818    0.74823    0.28026   1.00
C5       0.76627    0.69045    0.26697   1.00
H1       0.96994    0.75846    0.33680   1.00
H1       0.85713    0.51519    0.26462   1.00
H1       0.86127    0.84170    0.31010   1.00
H1       0.72804    0.58135    0.24225   1.00
C6       0.78293    0.80595    0.27852   1.00
C6       0.70752    0.67923    0.25343   1.00
H2       0.83051    0.85439    0.27961   1.00
H2       0.66814    0.62563    0.25403   1.00
H2       0.76568    0.80906    0.26338   1.00
H2       0.68060    0.70387    0.25945   1.00
C6       0.72910    0.80110    0.29439   1.00
C6       0.72988    0.70385    0.23107   1.00
H2       0.74066    0.78806    0.30926   1.00
H2       0.76524    0.68741    0.22587   1.00
C6       0.72055    0.86513    0.29707   1.00
C6       0.67233    0.68136    0.21475   1.00
H2       0.67968    0.75784    0.29015   1.00
H2       0.75955    0.75952    0.23123   1.00
C6       0.78549    0.92627    0.30621   1.00
C6       0.63452    0.60317    0.21121   1.00
C6       0.70312    0.88709    0.27672   1.00
C6       0.61989    0.70330    0.22068   1.00
C6       0.66084    0.84677    0.31202   1.00
C6       0.70554    0.71637    0.19433   1.00
H2       0.79981    0.91208    0.32044   1.00
H2       0.67030    0.58587    0.20731   1.00
H2       0.82866    0.94461    0.29588   1.00
H2       0.60644    0.57536    0.22464   1.00
H2       0.77738    0.96902    0.30933   1.00
H2       0.59780    0.58858    0.19884   1.00
H2       0.69248    0.92862    0.27899   1.00
H2       0.58283    0.69174    0.20856   1.00
H2       0.74551    0.90501    0.26608   1.00
H2       0.59167    0.67648    0.23424   1.00
H2       0.65839    0.84453    0.26974   1.00
H2       0.64537    0.75796    0.22368   1.00
H2       0.67094    0.83154    0.32675   1.00
H2       0.74259    0.70197    0.18933   1.00
H2       0.65315    0.89013    0.31450   1.00
H2       0.66734    0.70185    0.18238   1.00
H2       0.61316    0.80472    0.30621   1.00
H2       0.73192    0.77180    0.19574   1.00
C4       0.83552    0.13432    0.29570   1.00
C4       0.80825    0.15971    0.28072   1.00
C3       0.79408    0.08663    0.31084   1.00
C3       0.73688    0.13392    0.27851   1.00
C3       0.90688    0.15702    0.29578   1.00
C3       0.85330    0.21284    0.26730   1.00
C2       0.89006    0.08040    0.32538   1.00
C2       0.75320    0.21329    0.25110   1.00
C3       0.82033    0.06016    0.32518   1.00
C3       0.71009    0.16003    0.26424   1.00
C3       0.93153    0.12853    0.31057   1.00
C3       0.82399    0.23828    0.25304   1.00
H1       0.74338    0.06984    0.31215   1.00
H1       0.70163    0.09472    0.28706   1.00
C5       0.95164    0.20712    0.28145   1.00
C5       0.92545    0.23889    0.26823   1.00
H1       0.78770    0.02570    0.33565   1.00
H1       0.65815    0.13941    0.26346   1.00
H1       0.98187    0.14305    0.31103   1.00
H1       0.85440    0.27636    0.24333   1.00
C6       1.02561    0.22523    0.28032   1.00
C6       0.97298    0.29992    0.25543   1.00
H2       1.02834    0.17858    0.28108   1.00
H2       0.95678    0.33780    0.25622   1.00
H2       1.04736    0.24476    0.26545   1.00
H2       1.02376    0.32764    0.26199   1.00
C6       1.07151    0.27798    0.29688   1.00
C6       0.97876    0.28083    0.23295   1.00
H2       1.04523    0.26388    0.31150   1.00
H2       0.92800    0.24475    0.22716   1.00
C6       1.14484    0.28898    0.30010   1.00
C6       1.01394    0.34052    0.21729   1.00
H2       1.07621    0.32709    0.29304   1.00
H2       1.00648    0.25284    0.23308   1.00
C6       1.14265    0.22420    0.30875   1.00
C6       0.97160    0.37629    0.21374   1.00
C6       1.18659    0.31009    0.28015   1.00
C6       1.08693    0.39415    0.22408   1.00
C6       1.18283    0.34729    0.31575   1.00
C6       1.01947    0.31056    0.19665   1.00
H2       1.11257    0.20732    0.32268   1.00
H2       0.91942    0.33958    0.20924   1.00
H2       1.12029    0.18220    0.29796   1.00
H2       0.96919    0.40216    0.22737   1.00
H2       1.19381    0.23383    0.31227   1.00
H2       0.99404    0.41460    0.20179   1.00
H2       1.23908    0.32236    0.28285   1.00
H2       1.11276    0.43290    0.21241   1.00
H2       1.16461    0.26890    0.26906   1.00
H2       1.08565    0.42018    0.23784   1.00
H2       1.18773    0.35478    0.27352   1.00
H2       1.11741    0.37005    0.22710   1.00
H2       1.15577    0.33462    0.33022   1.00
H2       0.96912    0.27281    0.19106   1.00
H2       1.23428    0.35660    0.31862   1.00
H2       1.04337    0.35033    0.18515   1.00
H2       1.18726    0.39487    0.31031   1.00
H2       1.05002    0.28576    0.19808   1.00
C4       0.83268    0.69141    0.79894   1.00
C4       0.80446    0.63553    0.78503   1.00
C3       0.80086    0.73075    0.80312   1.00
C3       0.73911    0.61061    0.77597   1.00
C3       0.89512    0.70942    0.80918   1.00
C3       0.84230    0.60263    0.77983   1.00
C2       0.88792    0.80229    0.82782   1.00
C2       0.74878    0.52471    0.75614   1.00
C3       0.82735    0.78429    0.81718   1.00
C3       0.71215    0.55714    0.76189   1.00
C3       0.92020    0.76406    0.82348   1.00
C3       0.81319    0.54860    0.76533   1.00
H1       0.75760    0.72240    0.79595   1.00
H1       0.70834    0.62994    0.77942   1.00
C5       0.93099    0.67354    0.80497   1.00
C5       0.90712    0.62357    0.78910   1.00
H1       0.80182    0.81051    0.81957   1.00
H1       0.66484    0.54172    0.75584   1.00
H1       0.96420    0.77806    0.83116   1.00
H1       0.83875    0.52427    0.76115   1.00
C6       0.99300    0.68828    0.81747   1.00
C6       0.94978    0.59330    0.78186   1.00
H2       0.98240    0.69186    0.83340   1.00
H2       0.94877    0.59144    0.76534   1.00
H2       1.00155    0.64513    0.81763   1.00
H2       1.00371    0.62717    0.78483   1.00
C6       1.05980    0.75329    0.81021   1.00
C6       0.92748    0.52169    0.79135   1.00
H2       1.04904    0.79443    0.80716   1.00
H2       0.87189    0.49039    0.79107   1.00
C6       1.12339    0.78213    0.82453   1.00
C6       0.95737    0.47897    0.78173   1.00
H2       1.07400    0.74151    0.79556   1.00
H2       0.94121    0.52932    0.80741   1.00
C6       1.11120    0.81035    0.84457   1.00
C6       0.93120    0.45645    0.75976   1.00
C6       1.14323    0.72745    0.82954   1.00
C6       1.03636    0.51898    0.78168   1.00
C6       1.18475    0.84212    0.81356   1.00
C6       0.93350    0.41342    0.79458   1.00
H2       1.09601    0.84831    0.84155   1.00
H2       0.87553    0.42900    0.75923   1.00
H2       1.07137    0.76995    0.85368   1.00
H2       0.94969    0.50001    0.74958   1.00
H2       1.15732    0.83457    0.85382   1.00
H2       0.94847    0.42282    0.75369   1.00
H2       1.19038    0.74934    0.83832   1.00
H2       1.05667    0.48709    0.77629   1.00
H2       1.10364    0.68617    0.83850   1.00
H2       1.05591    0.56324    0.77172   1.00
H2       1.15071    0.70572    0.81568   1.00
H2       1.05611    0.53667    0.79691   1.00
H2       1.17364    0.88258    0.80986   1.00
H2       0.87792    0.38285    0.79493   1.00
H2       1.23040    0.86432    0.82304   1.00
H2       0.95275    0.38158    0.78836   1.00
H2       1.19678    0.82511    0.79947   1.00
H2       0.95160    0.42596    0.81019   1.00
C4       0.29951    0.13363    0.79595   1.00
C4       0.35419    0.15705    0.78169   1.00
C3       0.23986    0.13803    0.79220   1.00
C3       0.35000    0.17981    0.76187   1.00
C3       0.30383    0.10466    0.81478   1.00
C3       0.41575    0.15801    0.78718   1.00
C2       0.18744    0.08324    0.82435   1.00
C2       0.46597    0.20757    0.75318   1.00
C3       0.18533    0.11334    0.80589   1.00
C3       0.40423    0.20463    0.74806   1.00
C3       0.24701    0.07976    0.82826   1.00
C3       0.46992    0.18403    0.77272   1.00
H1       0.23408    0.15997    0.77946   1.00
H1       0.30714    0.17856    0.75665   1.00
C5       0.36381    0.10146    0.81978   1.00
C5       0.42192    0.13308    0.80660   1.00
H1       0.14361    0.11778    0.80226   1.00
H1       0.39809    0.22054    0.73403   1.00
H1       0.24798    0.05840    0.84173   1.00
H1       0.51465    0.18597    0.77612   1.00
C6       0.36473    0.06418    0.83873   1.00
C6       0.48976    0.14111    0.81303   1.00
H2       0.31654    0.01638    0.83991   1.00
H2       0.53033    0.19216    0.80904   1.00
H2       0.40098    0.04618    0.83747   1.00
H2       0.49455    0.14166    0.82944   1.00
C6       0.38060    0.10814    0.85848   1.00
C6       0.50313    0.08472    0.80408   1.00
H2       0.35128    0.13453    0.85841   1.00
H2       0.48886    0.07687    0.78805   1.00
C6       0.36807    0.07056    0.87932   1.00
C6       0.57707    0.09618    0.80591   1.00
H2       0.43399    0.14848    0.85782   1.00
H2       0.46809    0.03657    0.81152   1.00
C6       0.29123    0.01968    0.88293   1.00
C6       0.62871    0.15778    0.79299   1.00
C6       0.40845    0.03215    0.88096   1.00
C6       0.60162    0.10698    0.82824   1.00
C6       0.39284    0.12453    0.89654   1.00
C6       0.57692    0.03174    0.79778   1.00
H2       0.26114    0.04503    0.88155   1.00
H2       0.61224    0.15223    0.77719   1.00
H2       0.27139    -0.02214   0.87207   1.00
H2       0.63453    0.20556    0.79868   1.00
H2       0.28253    -0.00271   0.89806   1.00
H2       0.67906    0.16246    0.79324   1.00
H2       0.40325    0.01024    0.89605   1.00
H2       0.65113    0.11004    0.82951   1.00
H2       0.38977    -0.00956   0.87006   1.00
H2       0.60713    0.15429    0.83428   1.00
H2       0.46255    0.06654    0.87806   1.00
H2       0.56540    0.06498    0.83774   1.00
H2       0.36535    0.15270    0.89620   1.00
H2       0.56061    0.02220    0.78195   1.00
H2       0.38472    0.10066    0.91145   1.00
H2       0.62768    0.03748    0.79862   1.00
H2       0.44718    0.16120    0.89507   1.00
H2       0.54238    -0.01335   0.80656   1.00
C4       0.86585    0.16479    0.79575   1.00
C4       0.84261    0.19596    0.78140   1.00
C3       0.85325    0.09691    0.79338   1.00
C3       0.81154    0.16422    0.76267   1.00
C3       0.90311    0.20215    0.81325   1.00
C3       0.85042    0.26140    0.78567   1.00
C2       0.91570    0.10288    0.82425   1.00
C2       0.79256    0.25742    0.75281   1.00
C3       0.87765    0.06690    0.80712   1.00
C3       0.78693    0.19375    0.74883   1.00
C3       0.92739    0.16988    0.82682   1.00
C3       0.82433    0.28956    0.77123   1.00
H1       0.82529    0.06647    0.78169   1.00
H1       0.80623    0.11877    0.75829   1.00
C5       0.91492    0.26965    0.81690   1.00
C5       0.88387    0.29713    0.80388   1.00
H1       0.86706    0.01785    0.80450   1.00
H1       0.76479    0.16813    0.73563   1.00
H1       0.95447    0.19497    0.83936   1.00
H1       0.82851    0.33577    0.77379   1.00
C6       0.96053    0.31122    0.83428   1.00
C6       0.88529    0.36286    0.80923   1.00
H2       1.00552    0.30549    0.83455   1.00
H2       0.83508    0.35669    0.80643   1.00
H2       0.98301    0.36564    0.83161   1.00
H2       0.89089    0.37249    0.82547   1.00
C6       0.92310    0.29310    0.85528   1.00
C6       0.94273    0.42661    0.79789   1.00
H2       0.89216    0.23772    0.85682   1.00
H2       0.94385    0.41396    0.78194   1.00
C6       0.96815    0.32140    0.87479   1.00
C6       0.93969    0.49415    0.79868   1.00
H2       0.88667    0.31138    0.85513   1.00
H2       0.99171    0.43696    0.80411   1.00
C6       1.01397    0.28922    0.87793   1.00
C6       0.87662    0.48699    0.78721   1.00
C6       1.01345    0.40006    0.87413   1.00
C6       0.93881    0.51680    0.82080   1.00
C6       0.92038    0.30252    0.89350   1.00
C6       1.00431    0.55145    0.78811   1.00
H2       0.98359    0.23361    0.87814   1.00
H2       0.87516    0.46996    0.77162   1.00
H2       1.05177    0.30394    0.86592   1.00
H2       0.82924    0.45040    0.79459   1.00
H2       1.04161    0.30563    0.89227   1.00
H2       0.87748    0.53557    0.78663   1.00
H2       1.04095    0.41969    0.88838   1.00
H2       0.94162    0.56633    0.82119   1.00
H2       1.05124    0.41589    0.86205   1.00
H2       0.89201    0.48042    0.82852   1.00
H2       0.98255    0.42394    0.87150   1.00
H2       0.98194    0.52084    0.82934   1.00
H2       0.88769    0.24732    0.89479   1.00
H2       1.00703    0.53829    0.77234   1.00
H2       0.94955    0.32085    0.90754   1.00
H2       1.00431    0.59966    0.78816   1.00
H2       0.88762    0.32496    0.89237   1.00
H2       1.05061    0.55989    0.79578   1.00
C4       0.02502    0.50526    0.36789   1.00
C4       -0.02964   0.47863    0.38221   1.00
C3       0.03134    0.46379    0.35277   1.00
C3       -0.08550   0.41059    0.38110   1.00
C3       0.07583    0.57593    0.36849   1.00
C3       -0.02933   0.52097    0.39836   1.00
C2       0.13367    0.55973    0.33827   1.00
C2       -0.13852   0.42367    0.41176   1.00
C3       0.08376    0.49014    0.33833   1.00
C3       -0.13816   0.38372    0.39546   1.00
C3       0.12817    0.60083    0.35345   1.00
C3       -0.08372   0.49154    0.41273   1.00
H1       -0.00152   0.41275    0.35180   1.00
H1       -0.09038   0.37821    0.36970   1.00
C5       0.07378    0.61962    0.38389   1.00
C5       0.02405    0.59076    0.39978   1.00
H1       0.08532    0.45761    0.32777   1.00
H1       -0.17685   0.33418    0.39385   1.00
H1       0.16494    0.65087    0.35330   1.00
H1       -0.08504   0.51989    0.42449   1.00
C6       0.12353    0.69557    0.38305   1.00
C6       0.02766    0.63276    0.41810   1.00
H2       0.12706    0.71314    0.36747   1.00
H2       0.01820    0.60210    0.43174   1.00
H2       0.10379    0.72443    0.39082   1.00
H2       0.07924    0.67430    0.42076   1.00
C6       0.19544    0.71596    0.39195   1.00
C6       -0.02157   0.66252    0.41663   1.00
H2       0.21139    0.68057    0.38643   1.00
H2       -0.07135   0.62314    0.41108   1.00
C6       0.25503    0.79018    0.38784   1.00
C6       -0.03350   0.69364    0.43636   1.00
H2       0.18987    0.70808    0.40835   1.00
H2       -0.00177   0.70187    0.40490   1.00
C6       0.27369    0.80221    0.36499   1.00
C6       -0.07172   0.63838    0.45280   1.00
C6       0.23743    0.84431    0.39543   1.00
C6       0.03447    0.75088    0.44528   1.00
C6       0.31920    0.80081    0.39950   1.00
C6       -0.07857   0.72526    0.43096   1.00
H2       0.28531    0.76410    0.35908   1.00
H2       -0.11946   0.59664    0.44687   1.00
H2       0.23214    0.79967    0.35600   1.00
H2       -0.04105   0.61688    0.45823   1.00
H2       0.31826    0.85239    0.36246   1.00
H2       -0.08397   0.65965    0.46592   1.00
H2       0.28103    0.89571    0.39382   1.00
H2       0.02527    0.77551    0.45816   1.00
H2       0.19544    0.84214    0.38674   1.00
H2       0.06625    0.73047    0.45062   1.00
H2       0.22271    0.83611    0.41138   1.00
H2       0.06308    0.78977    0.43387   1.00
H2       0.33426    0.76421    0.39455   1.00
H2       -0.12762   0.68671    0.42477   1.00
H2       0.36245    0.85190    0.39699   1.00
H2       -0.08873   0.74731    0.44431   1.00
H2       0.30966    0.79435    0.41580   1.00
H2       -0.05367   0.76567    0.41969   1.00
C4       0.48070    0.97472    0.36798   1.00
C4       0.50867    1.02921    0.38237   1.00
C3       0.43747    0.97164    0.35182   1.00
C3       0.50130    1.08786    0.38037   1.00
C3       0.49592    0.92075    0.36960   1.00
C3       0.54567    1.02585    0.39948   1.00
C2       0.42682    0.86629    0.33829   1.00
C2       0.56232    1.13789    0.41197   1.00
C3       0.41157    0.91932    0.33735   1.00
C3       0.52696    1.14044    0.39475   1.00
C3       0.46883    0.86861    0.35450   1.00
C3       0.57067    1.08029    0.41384   1.00
H1       0.42263    1.00693    0.35007   1.00
H1       0.47759    1.09489    0.36829   1.00
C5       0.53681    0.91956    0.38604   1.00
C5       0.55722    0.96947    0.40186   1.00
H1       0.38090    0.92017    0.32601   1.00
H1       0.51970    1.18123    0.39247   1.00
H1       0.47890    0.82963    0.35506   1.00
H1       0.59682    1.07950    0.42627   1.00
C6       0.55848    0.86623    0.38636   1.00
C6       0.59005    0.96296    0.42110   1.00
H2       0.57488    0.86157    0.37120   1.00
H2       0.56761    0.97425    0.43409   1.00
H2       0.60497    0.88313    0.39507   1.00
H2       0.57610    0.91034    0.42406   1.00
C6       0.50197    0.79557    0.39477   1.00
C6       0.66975    1.00817    0.42101   1.00
H2       0.45266    0.78278    0.38819   1.00
H2       0.68450    1.05890    0.41519   1.00
C6       0.51249    0.73290    0.39165   1.00
C6       0.70790    1.01739    0.44159   1.00
H2       0.49680    0.80148    0.41101   1.00
H2       0.68945    0.98629    0.40999   1.00
C6       0.50943    0.71410    0.36890   1.00
C6       0.69098    1.05813    0.45718   1.00
C6       0.58105    0.74592    0.40076   1.00
C6       0.69080    0.94787    0.45096   1.00
C6       0.45403    0.67039    0.40269   1.00
C6       0.78588    1.05847    0.43757   1.00
H2       0.46207    0.70567    0.36194   1.00
H2       0.70145    1.10707    0.45090   1.00
H2       0.55174    0.75426    0.36043   1.00
H2       0.63757    1.03017    0.46166   1.00
H2       0.51207    0.66761    0.36698   1.00
H2       0.72136    1.06837    0.47094   1.00
H2       0.58568    0.70028    0.39980   1.00
H2       0.72131    0.95494    0.46452   1.00
H2       0.62411    0.78648    0.39260   1.00
H2       0.63731    0.91876    0.45537   1.00
H2       0.58513    0.76067    0.41667   1.00
H2       0.70091    0.91756    0.44013   1.00
H2       0.40437    0.65854    0.39666   1.00
H2       0.80081    1.10844    0.43113   1.00
H2       0.45891    0.62510    0.40083   1.00
H2       0.81481    1.06665    0.45155   1.00
H2       0.45435    0.68002    0.41892   1.00
H2       0.80126    1.03162    0.42696   1.00
C4       0.49405    0.51931    0.36798   1.00
C4       0.52058    0.49134    0.38236   1.00
C3       0.53425    0.56269    0.35185   1.00
C3       0.58667    0.49888    0.38039   1.00
C3       0.42481    0.50394    0.36957   1.00
C3       0.48014    0.45417    0.39944   1.00
C2       0.43951    0.57320    0.33829   1.00
C2       0.57560    0.43768    0.41196   1.00
C3       0.50784    0.58860    0.33738   1.00
C3       0.61359    0.47321    0.39477   1.00
C3       0.39976    0.53104    0.35446   1.00
C3       0.50958    0.42918    0.41380   1.00
H1       0.58442    0.57765    0.35012   1.00
H1       0.61747    0.52271    0.36833   1.00
C5       0.38267    0.46289    0.38597   1.00
C5       0.41214    0.44246    0.40180   1.00
H1       0.53940    0.61939    0.32607   1.00
H1       0.66170    0.48059    0.39252   1.00
H1       0.35067    0.52086    0.35500   1.00
H1       0.48259    0.40291    0.42622   1.00
C6       0.30762    0.44106    0.38626   1.00
C6       0.37271    0.40944    0.42101   1.00
H2       0.28668    0.42473    0.37108   1.00
H2       0.40634    0.43185    0.43402   1.00
H2       0.27806    0.39450    0.39494   1.00
H2       0.33394    0.42326    0.42396   1.00
C6       0.29328    0.49741    0.39468   1.00
C6       0.33837    0.32976    0.42087   1.00
H2       0.32976    0.54680    0.38814   1.00
H2       0.37446    0.31515    0.41505   1.00
C6       0.22004    0.48675    0.39153   1.00
C6       0.30936    0.29145    0.44143   1.00
H2       0.30424    0.50249    0.41093   1.00
H2       0.29686    0.31005    0.40983   1.00
C6       0.20442    0.48992    0.36878   1.00
C6       0.36694    0.30837    0.45704   1.00
C6       0.16454    0.41808    0.40059   1.00
C6       0.25677    0.30833    0.45078   1.00
C6       0.21578    0.54506    0.40259   1.00
C6       0.27263    0.21350    0.43735   1.00
H2       0.24334    0.53738    0.36185   1.00
H2       0.40553    0.29805    0.45077   1.00
H2       0.20242    0.44772    0.36028   1.00
H2       0.39227    0.36176    0.46156   1.00
H2       0.15525    0.48719    0.36684   1.00
H2       0.34677    0.27789    0.47078   1.00
H2       0.11422    0.41334    0.39962   1.00
H2       0.23329    0.27772    0.46432   1.00
H2       0.16219    0.37512    0.39241   1.00
H2       0.28104    0.36179    0.45522   1.00
H2       0.17512    0.41393    0.41651   1.00
H2       0.21640    0.29822    0.43993   1.00
H2       0.25355    0.59479    0.39660   1.00
H2       0.30779    0.19871    0.43092   1.00
H2       0.16558    0.54008    0.40071   1.00
H2       0.25183    0.18446    0.45132   1.00
H2       0.22499    0.54465    0.41882   1.00
H2       0.23046    0.19811    0.42673   1.00
C4       0.16001    0.30777    0.20143   1.00
C4       0.19026    0.36387    0.21523   1.00
C3       0.08974    0.25688    0.20239   1.00
C3       0.15106    0.37696    0.22956   1.00
C3       0.20085    0.30144    0.18598   1.00
C3       0.26237    0.40921    0.21490   1.00
C2       0.09803    0.19612    0.17289   1.00
C2       0.25174    0.47534    0.24384   1.00
C3       0.05950    0.20291    0.18851   1.00
C3       0.18077    0.43075    0.24350   1.00
C3       0.16802    0.24592    0.17208   1.00
C3       0.29068    0.46315    0.22944   1.00
H1       0.05803    0.25674    0.21333   1.00
H1       0.09937    0.34830    0.23026   1.00
C5       0.27250    0.34948    0.18478   1.00
C5       0.30416    0.40033    0.20027   1.00
H1       0.00850    0.16803    0.18998   1.00
H1       0.14972    0.43730    0.25350   1.00
H1       0.19526    0.23997    0.16081   1.00
H1       0.34180    0.49616    0.22977   1.00
C6       0.31355    0.34640    0.16710   1.00
C6       0.38101    0.44412    0.20148   1.00
H2       0.28467    0.33835    0.15315   1.00
H2       0.39682    0.44765    0.21726   1.00
H2       0.35860    0.39561    0.16424   1.00
H2       0.40634    0.41921    0.19452   1.00
C6       0.33571    0.29146    0.16988   1.00
C6       0.40899    0.51637    0.19171   1.00
H2       0.29269    0.24423    0.17564   1.00
H2       0.37726    0.53779    0.19638   1.00
C6       0.36488    0.27310    0.15089   1.00
C6       0.48513    0.57109    0.19600   1.00
H2       0.37406    0.30917    0.18189   1.00
H2       0.40210    0.50952    0.17530   1.00
C6       0.30982    0.23728    0.13423   1.00
C6       0.49697    0.59199    0.21869   1.00
C6       0.42695    0.33705    0.14175   1.00
C6       0.53438    0.54558    0.18959   1.00
C6       0.38897    0.22278    0.15755   1.00
C6       0.50326    0.63599    0.18343   1.00
H2       0.26481    0.19251    0.14029   1.00
H2       0.46216    0.60920    0.22377   1.00
H2       0.29356    0.27133    0.12795   1.00
H2       0.48920    0.54964    0.22832   1.00
H2       0.32926    0.22047    0.12168   1.00
H2       0.54894    0.63345    0.22126   1.00
H2       0.44987    0.32309    0.12944   1.00
H2       0.58746    0.58578    0.19128   1.00
H2       0.41183    0.37214    0.13555   1.00
H2       0.52693    0.50270    0.19894   1.00
H2       0.46590    0.36403    0.15328   1.00
H2       0.52611    0.52919    0.17377   1.00
H2       0.34678    0.17629    0.16394   1.00
H2       0.47033    0.65654    0.18753   1.00
H2       0.40940    0.20805    0.14475   1.00
H2       0.55594    0.67596    0.18603   1.00
H2       0.42894    0.24568    0.16903   1.00
H2       0.49723    0.62481    0.16721   1.00
C4       0.70039    0.86643    0.20402   1.00
C4       0.64781    0.84159    0.21901   1.00
C3       0.69947    0.90312    0.18657   1.00
C3       0.59457    0.85778    0.21874   1.00
C3       0.75638    0.85451    0.20629   1.00
C3       0.64772    0.79894    0.23502   1.00
C2       0.80838    0.91959    0.17419   1.00
C2       0.53958    0.78867    0.24876   1.00
C3       0.75191    0.92923    0.17215   1.00
C3       0.54187    0.83192    0.23308   1.00
C3       0.80894    0.88229    0.19131   1.00
C3       0.59291    0.77335    0.24927   1.00
H1       0.66031    0.91166    0.18359   1.00
H1       0.59246    0.88953    0.20823   1.00
C5       0.75869    0.81546    0.22308   1.00
C5       0.70153    0.78320    0.23659   1.00
H1       0.74836    0.95549    0.15995   1.00
H1       0.50482    0.84530    0.23200   1.00
H1       0.84980    0.87529    0.19247   1.00
H1       0.59082    0.74250    0.26078   1.00
C6       0.82161    0.80944    0.22646   1.00
C6       0.69695    0.73226    0.25228   1.00
H2       0.86683    0.85926    0.22424   1.00
H2       0.64526    0.68875    0.25239   1.00
H2       0.82694    0.79924    0.24226   1.00
H2       0.72644    0.70846    0.24787   1.00
C6       0.82339    0.75351    0.21289   1.00
C6       0.71998    0.76397    0.27397   1.00
H2       0.80828    0.75726    0.19741   1.00
H2       0.69810    0.79633    0.27736   1.00
C6       0.89216    0.75294    0.21172   1.00
C6       0.70331    0.71366    0.29218   1.00
H2       0.78385    0.70377    0.21839   1.00
H2       0.77508    0.79851    0.27356   1.00
C6       0.94870    0.81759    0.20101   1.00
C6       0.62539    0.66989    0.29590   1.00
C6       0.91741    0.74685    0.23304   1.00
C6       0.73315    0.66597    0.28888   1.00
C6       0.88040    0.69015    0.19905   1.00
C6       0.73596    0.75605    0.31168   1.00
H2       0.93201    0.82397    0.18603   1.00
H2       0.60258    0.70207    0.29796   1.00
H2       0.96255    0.86347    0.20977   1.00
H2       0.59964    0.63562    0.28325   1.00
H2       0.99493    0.81453    0.19901   1.00
H2       0.61450    0.63844    0.30945   1.00
H2       0.96266    0.74159    0.23196   1.00
H2       0.72550    0.63452    0.30225   1.00
H2       0.93092    0.79206    0.24213   1.00
H2       0.70847    0.63167    0.27613   1.00
H2       0.87799    0.70249    0.24108   1.00
H2       0.78774    0.69551    0.28580   1.00
H2       0.86316    0.69232    0.18374   1.00
H2       0.71604    0.79017    0.31483   1.00
H2       0.92722    0.68778    0.19768   1.00
H2       0.72532    0.72311    0.32488   1.00
H2       0.84192    0.64273    0.20607   1.00
H2       0.79124    0.78708    0.31015   1.00
C4       0.13432    0.83553    0.20430   1.00
C4       0.15971    0.80825    0.21928   1.00
C3       0.08660    0.79408    0.18916   1.00
C3       0.13390    0.73688    0.22149   1.00
C3       0.15705    0.90689    0.20421   1.00
C3       0.21287    0.85331    0.23270   1.00
C2       0.08040    0.89006    0.17462   1.00
C2       0.21330    0.75320    0.24890   1.00
C3       0.06014    0.82032    0.17483   1.00
C3       0.16001    0.71009    0.23577   1.00
C3       0.12856    0.93154    0.18942   1.00
C3       0.23831    0.82400    0.24695   1.00
H1       0.06980    0.74337    0.18786   1.00
H1       0.09468    0.70164    0.21295   1.00
C5       0.20717    0.95165    0.21853   1.00
C5       0.23893    0.92546    0.23176   1.00
H1       0.02566    0.78770    0.16436   1.00
H1       0.13938    0.65815    0.23655   1.00
H1       0.14309    0.98188    0.18896   1.00
H1       0.27641    0.85440    0.25666   1.00
C6       0.22531    1.02563    0.21966   1.00
C6       0.29999    0.97299    0.24455   1.00
H2       0.17867    1.02838    0.21891   1.00
H2       0.33785    0.95677    0.24376   1.00
H2       0.24485    1.04740    0.23453   1.00
H2       0.32772    1.02377    0.23799   1.00
C6       0.27805    1.07150    0.20310   1.00
C6       0.28093    0.97880    0.26703   1.00
H2       0.26393    1.04520    0.18848   1.00
H2       0.24484    0.92806    0.27282   1.00
C6       0.28907    1.14484    0.19987   1.00
C6       0.34064    1.01399    0.28269   1.00
H2       0.32715    1.07619    0.20693   1.00
H2       0.25296    1.00654    0.26691   1.00
C6       0.22429    1.14266    0.19122   1.00
C6       0.37639    0.97163    0.28623   1.00
C6       0.31021    1.18661    0.21981   1.00
C6       0.39428    1.08696    0.27588   1.00
C6       0.34737    1.18280    0.18422   1.00
C6       0.31071    1.01955    0.30332   1.00
H2       0.20739    1.11257    0.17730   1.00
H2       0.33968    0.91945    0.29074   1.00
H2       0.18230    1.12033    0.20202   1.00
H2       0.40224    0.96919    0.27260   1.00
H2       0.23394    1.19383    0.18771   1.00
H2       0.41472    0.99407    0.29818   1.00
H2       0.32250    1.23910    0.21711   1.00
H2       0.43304    1.11279    0.28755   1.00
H2       0.26904    1.16465    0.23091   1.00
H2       0.42030    1.08566    0.26212   1.00
H2       0.35490    1.18774    0.22644   1.00
H2       0.37019    1.11745    0.27287   1.00
H2       0.33466    1.15572    0.16975   1.00
H2       0.27295    0.96921    0.30893   1.00
H2       0.35669    1.23425    0.18134   1.00
H2       0.35049    1.04345    0.31482   1.00
H2       0.39494    1.18721    0.18965   1.00
H2       0.28593    1.05012    0.30190   1.00
C4       0.97509    0.49507    0.63215   1.00
C4       1.03103    0.52574    0.61830   1.00
C3       0.93262    0.42304    0.63393   1.00
C3       1.05281    0.48675    0.60683   1.00
C3       0.96022    0.53726    0.64482   1.00
C3       1.06725    0.59811    0.61565   1.00
C2       0.86400    0.43294    0.66087   1.00
C2       1.14203    0.58736    0.58954   1.00
C3       0.87896    0.39280    0.64790   1.00
C3       1.10637    0.51646    0.59280   1.00
C3       0.90535    0.50445    0.65893   1.00
C3       1.12126    0.62633    0.60113   1.00
H1       0.93866    0.38985    0.62499   1.00
H1       1.03101    0.43536    0.60837   1.00
C5       0.99937    0.61011    0.64312   1.00
C5       1.04953    0.64030    0.62739   1.00
H1       0.85040    0.34054    0.64849   1.00
H1       1.11943    0.48550    0.58494   1.00
H1       0.89352    0.53272    0.66829   1.00
H1       1.14790    0.67753    0.59872   1.00
C6       0.98782    0.65411    0.65807   1.00
C6       1.08336    0.71588    0.62289   1.00
H2       0.98330    0.63344    0.67328   1.00
H2       1.08541    0.72329    0.60652   1.00
H2       1.03274    0.70433    0.65960   1.00
H2       1.05175    0.73703    0.62760   1.00
C6       0.92508    0.66251    0.65255   1.00
C6       1.15558    0.75833    0.63285   1.00
H2       0.88213    0.61312    0.64811   1.00
H2       1.18440    0.73191    0.63067   1.00
C6       0.89909    0.69379    0.66907   1.00
C6       1.20147    0.83384    0.62567   1.00
H2       0.93823    0.69422    0.63896   1.00
H2       1.14837    0.75852    0.64923   1.00
C6       0.86907    0.64611    0.68773   1.00
C6       1.22332    0.83770    0.60318   1.00
C6       0.95649    0.76469    0.67618   1.00
C6       1.16510    0.87585    0.62842   1.00
C6       0.84122    0.70297    0.65973   1.00
C6       1.26731    0.86749    0.63875   1.00
H2       0.82912    0.59525    0.68317   1.00
H2       1.24819    0.80760    0.60066   1.00
H2       0.90810    0.64076    0.69579   1.00
H2       1.17974    0.81868    0.59299   1.00
H2       0.84684    0.66608    0.69851   1.00
H2       1.25905    0.89016    0.59873   1.00
H2       0.93674    0.78815    0.68660   1.00
H2       1.19922    0.92946    0.62474   1.00
H2       0.99646    0.76050    0.68413   1.00
H2       1.12087    0.85715    0.61848   1.00
H2       0.97948    0.79884    0.66328   1.00
H2       1.14791    0.87281    0.64404   1.00
H2       0.79896    0.65415    0.65465   1.00
H2       1.29538    0.84013    0.63718   1.00
H2       0.82103    0.72431    0.67076   1.00
H2       1.30132    0.92030    0.63420   1.00
H2       0.85963    0.73730    0.64671   1.00
H2       1.25532    0.86758    0.65478   1.00
C4       0.51950    0.02515    0.63207   1.00
C4       0.49398    -0.03087   0.61823   1.00
C3       0.49387    0.07120    0.63267   1.00
C3       0.43642    -0.04900   0.60556   1.00
C3       0.57275    0.03641    0.64591   1.00
C3       0.52657    -0.07092   0.61684   1.00
C2       0.56873    0.13648    0.66070   1.00
C2       0.44437    -0.14207   0.58954   1.00
C3       0.51741    0.12499    0.64660   1.00
C3       0.41249    -0.10266   0.59157   1.00
C3       0.59504    0.09154    0.65993   1.00
C3       0.50084    -0.12490   0.60232   1.00
H1       0.45761    0.06778    0.62288   1.00
H1       0.40931    -0.02433   0.60616   1.00
C5       0.60256    -0.00651   0.64545   1.00
C5       0.58296    -0.05692   0.62981   1.00
H1       0.49664    0.15623    0.64632   1.00
H1       0.37090    -0.11298   0.58281   1.00
H1       0.63247    0.10088    0.67010   1.00
H1       0.52295    -0.15422   0.60078   1.00
C6       0.65365    0.00142    0.66157   1.00
C6       0.62146    -0.09491   0.62669   1.00
H2       0.63538    0.00725    0.67631   1.00
H2       0.62980    -0.09741   0.61050   1.00
H2       0.65515    -0.04541   0.66370   1.00
H2       0.67344    -0.06603   0.63231   1.00
C6       0.72764    0.06118    0.65711   1.00
C6       0.58557    -0.16745   0.63667   1.00
H2       0.72551    0.10606    0.65206   1.00
H2       0.53090    -0.19328   0.63348   1.00
C6       0.78112    0.08392    0.67468   1.00
C6       0.61211    -0.21704   0.63070   1.00
H2       0.74727    0.04625    0.64413   1.00
H2       0.58985    -0.16055   0.65311   1.00
C6       0.76255    0.11622    0.69255   1.00
C6       0.59784    -0.23832   0.60807   1.00
C6       0.78841    0.02358    0.68271   1.00
C6       0.68942    -0.18508   0.63495   1.00
C6       0.85159    0.13893    0.66636   1.00
C6       0.57373    -0.28282   0.64368   1.00
H2       0.75594    0.15832    0.68732   1.00
H2       0.54379    -0.26007   0.60451   1.00
H2       0.71546    0.07905    0.69994   1.00
H2       0.62668    -0.19502   0.59803   1.00
H2       0.80247    0.13616    0.70408   1.00
H2       0.61219    -0.27647   0.60442   1.00
H2       0.82920    0.04089    0.69393   1.00
H2       0.70638    -0.22176   0.63211   1.00
H2       0.74150    -0.01458   0.69000   1.00
H2       0.71919    -0.14117   0.62517   1.00
H2       0.80008    -0.00099   0.67036   1.00
H2       0.70106    -0.16834   0.65068   1.00
H2       0.84944    0.18311    0.66068   1.00
H2       0.51881    -0.30785   0.64108   1.00
H2       0.89067    0.15681    0.67815   1.00
H2       0.59022    -0.31933   0.63995   1.00
H2       0.86819    0.11876    0.65395   1.00
H2       0.58292    -0.27130   0.65983   1.00
C4       0.50562    0.48049    0.63207   1.00
C4       0.47511    0.50600    0.61824   1.00
C3       0.57731    0.50625    0.63271   1.00
C3       0.51453    0.56367    0.60560   1.00
C3       0.46361    0.42710    0.64587   1.00
C3       0.40247    0.47328    0.61680   1.00
C2       0.56772    0.43126    0.66071   1.00
C2       0.41352    0.55560    0.58954   1.00
C3       0.60756    0.48272    0.64665   1.00
C3       0.48481    0.58760    0.59161   1.00
C3       0.49646    0.40483    0.65990   1.00
C3       0.37422    0.49901    0.60228   1.00
H1       0.61017    0.54261    0.62294   1.00
H1       0.56631    0.59086    0.60623   1.00
C5       0.39087    0.39716    0.64537   1.00
C5       0.36008    0.41678    0.62973   1.00
H1       0.65959    0.50358    0.64639   1.00
H1       0.51607    0.62927    0.58288   1.00
H1       0.46835    0.36730    0.67005   1.00
H1       0.32280    0.47682    0.60072   1.00
C6       0.34767    0.34592    0.66146   1.00
C6       0.28361    0.37816    0.62656   1.00
H2       0.37166    0.36412    0.67621   1.00
H2       0.27289    0.36992    0.61037   1.00
H2       0.29928    0.34429    0.66357   1.00
H2       0.26057    0.32614    0.63216   1.00
C6       0.33363    0.27201    0.65696   1.00
C6       0.24676    0.41385    0.63655   1.00
H2       0.38073    0.27429    0.65193   1.00
H2       0.27553    0.46854    0.63339   1.00
C6       0.30286    0.21840    0.67450   1.00
C6       0.17065    0.38720    0.63054   1.00
H2       0.29917    0.25242    0.64396   1.00
H2       0.24929    0.40947    0.65299   1.00
C6       0.35363    0.23695    0.69239   1.00
C6       0.16374    0.40159    0.60792   1.00
C6       0.23512    0.21091    0.68250   1.00
C6       0.12540    0.30985    0.63474   1.00
C6       0.28761    0.14804    0.66615   1.00
C6       0.14305    0.42539    0.64352   1.00
H2       0.40242    0.24370    0.68718   1.00
H2       0.19597    0.45568    0.60438   1.00
H2       0.36341    0.28396    0.69981   1.00
H2       0.17836    0.37290    0.59787   1.00
H2       0.33365    0.19695    0.70390   1.00
H2       0.11124    0.38716    0.60423   1.00
H2       0.21163    0.17003    0.69369   1.00
H2       0.07175    0.29280    0.63187   1.00
H2       0.24373    0.25774    0.68981   1.00
H2       0.13969    0.28022    0.62495   1.00
H2       0.19895    0.19925    0.67013   1.00
H2       0.13044    0.29813    0.65047   1.00
H2       0.33403    0.15034    0.66048   1.00
H2       0.17286    0.48033    0.64096   1.00
H2       0.26640    0.10888    0.67791   1.00
H2       0.09005    0.40882    0.63977   1.00
H2       0.25092    0.13146    0.65371   1.00
H2       0.14529    0.41610    0.65967   1.00
C4       0.50897    0.03526    0.12871   1.00
C4       0.47950    -0.01764   0.11384   1.00
C3       0.57121    0.05267    0.13882   1.00
C3       0.51362    -0.05186   0.10651   1.00
C3       0.47558    0.07265    0.13388   1.00
C3       0.41345    -0.03767   0.10581   1.00
C2       0.57036    0.14445    0.15806   1.00
C2       0.41855    -0.12690   0.08451   1.00
C3       0.60125    0.10579    0.15297   1.00
C3       0.48405    -0.10506   0.09237   1.00
C3       0.50805    0.12662    0.14829   1.00
C3       0.38497    -0.09234   0.09151   1.00
H1       0.59671    0.02696    0.13643   1.00
H1       0.56153    -0.03896   0.11102   1.00
C5       0.41137    0.05558    0.12484   1.00
C5       0.37781    -0.00317   0.11197   1.00
H1       0.64632    0.11599    0.15967   1.00
H1       0.51120    -0.12787   0.08775   1.00
H1       0.48611    0.15467    0.15225   1.00
H1       0.33793    -0.10835   0.08556   1.00
C6       0.38027    0.10013    0.12880   1.00
C6       0.30513    -0.02961   0.10501   1.00
H2       0.42002    0.15349    0.12777   1.00
H2       0.27688    -0.08499   0.10638   1.00
H2       0.34612    0.09634    0.11665   1.00
H2       0.27732    -0.01501   0.11538   1.00
C6       0.34109    0.08412    0.14949   1.00
C6       0.30017    -0.00590   0.08305   1.00
H2       0.37131    0.07802    0.16137   1.00
H2       0.33575    -0.01128   0.07307   1.00
C6       0.32003    0.13630    0.15730   1.00
C6       0.22853    -0.04190   0.07257   1.00
H2       0.29502    0.03425    0.14812   1.00
H2       0.31854    0.04880    0.08363   1.00
C6       0.38320    0.20592    0.16278   1.00
C6       0.20340    -0.11816   0.06819   1.00
C6       0.27604    0.14771    0.14151   1.00
C6       0.17452    -0.03621   0.08553   1.00
C6       0.27689    0.10724    0.17688   1.00
C6       0.23450    -0.00636   0.05192   1.00
H2       0.41592    0.19948    0.17366   1.00
H2       0.24095    -0.12398   0.05934   1.00
H2       0.41371    0.23125    0.14942   1.00
H2       0.19405    -0.14719   0.08216   1.00
H2       0.36798    0.24030    0.16951   1.00
H2       0.15576    -0.14158   0.05964   1.00
H2       0.25759    0.18030    0.14766   1.00
H2       0.12607    -0.05713   0.07746   1.00
H2       0.30552    0.17245    0.12792   1.00
H2       0.16491    -0.06442   0.09970   1.00
H2       0.23195    0.09929    0.13707   1.00
H2       0.19161    0.01692    0.08920   1.00
H2       0.30593    0.09890    0.18863   1.00
H2       0.27158    -0.00955   0.04207   1.00
H2       0.26131    0.14217    0.18301   1.00
H2       0.18572    -0.03005   0.04394   1.00
H2       0.23076    0.05865    0.17390   1.00
H2       0.25075    0.04745    0.05404   1.00
C4       0.97419    0.48133    0.13183   1.00
C4       1.02840    0.50914    0.11735   1.00
C3       0.97606    0.44636    0.14957   1.00
C3       1.09115    0.51027    0.12063   1.00
C3       0.91542    0.48818    0.12868   1.00
C3       1.02049    0.53721    0.09881   1.00
C2       0.86611    0.42799    0.16163   1.00
C2       1.13678    0.56233    0.08765   1.00
C3       0.92390    0.42077    0.16409   1.00
C3       1.14362    0.53571    0.10622   1.00
C3       0.86358    0.46172    0.14388   1.00
C3       1.07500    0.56227    0.08447   1.00
H1       1.01508    0.43759    0.15251   1.00
H1       1.10135    0.49327    0.13371   1.00
C5       0.90932    0.52035    0.11069   1.00
C5       0.95962    0.54011    0.09501   1.00
H1       0.92843    0.39629    0.17660   1.00
H1       1.18753    0.53482    0.10947   1.00
H1       0.82124    0.46602    0.14225   1.00
H1       1.07109    0.58219    0.07105   1.00
C6       0.85043    0.53371    0.10858   1.00
C6       0.94891    0.56319    0.07447   1.00
H2       0.84342    0.55348    0.12290   1.00
H2       0.96364    0.53938    0.06266   1.00
H2       0.86269    0.57594    0.09835   1.00
H2       0.89511    0.54272    0.07119   1.00
C6       0.78279    0.46969    0.10131   1.00
C6       0.98695    0.64271    0.07212   1.00
H2       0.77522    0.42463    0.10960   1.00
H2       1.03865    0.66467    0.07818   1.00
C6       0.71537    0.47272    0.10290   1.00
C6       0.99221    0.67224    0.05030   1.00
H2       0.78977    0.46012    0.08549   1.00
H2       0.96141    0.66201    0.08189   1.00
C6       0.69574    0.47527    0.12530   1.00
C6       1.03735    0.65633    0.03620   1.00
C6       0.72087    0.53480    0.09132   1.00
C6       0.92100    0.64457    0.04050   1.00
C6       0.65659    0.40702    0.09323   1.00
C6       1.02607    0.75099    0.05186   1.00
H2       0.69254    0.43268    0.13398   1.00
H2       1.08768    0.67424    0.04285   1.00
H2       0.73292    0.52235    0.13269   1.00
H2       1.01436    0.60182    0.03342   1.00
H2       0.64636    0.47259    0.12630   1.00
H2       1.04458    0.68109    0.02148   1.00
H2       0.67215    0.53374    0.09130   1.00
H2       0.92486    0.66913    0.02592   1.00
H2       0.75838    0.58252    0.09838   1.00
H2       0.89681    0.58987    0.03777   1.00
H2       0.73605    0.53500    0.07560   1.00
H2       0.88771    0.65385    0.05032   1.00
H2       0.65006    0.36156    0.10102   1.00
H2       1.07694    0.77323    0.05850   1.00
H2       0.60820    0.40654    0.09410   1.00
H2       1.03130    0.77407    0.03694   1.00
H2       0.66682    0.40300    0.07727   1.00
H2       0.99580    0.76551    0.06130   1.00
C4       0.51932    0.49407    0.13203   1.00
C4       0.49135    0.52060    0.11764   1.00
C3       0.56285    0.53432    0.14813   1.00
C3       0.49904    0.58676    0.11959   1.00
C3       0.50380    0.42478    0.13046   1.00
C3       0.45402    0.48010    0.10059   1.00
C2       0.57323    0.43953    0.16171   1.00
C2       0.43768    0.57563    0.08804   1.00
C3       0.58877    0.50791    0.16259   1.00
C3       0.47337    0.61368    0.10521   1.00
C3       0.53092    0.39974    0.14557   1.00
C3       0.42903    0.50954    0.08623   1.00
H1       0.57791    0.58452    0.14983   1.00
H1       0.52299    0.61762    0.13163   1.00
C5       0.46260    0.38258    0.11409   1.00
C5       0.44215    0.41203    0.09827   1.00
H1       0.61966    0.53951    0.17388   1.00
H1       0.48086    0.66184    0.10744   1.00
H1       0.52064    0.35061    0.14505   1.00
H1       0.40265    0.48250    0.07384   1.00
C6       0.44062    0.30750    0.11384   1.00
C6       0.40897    0.37251    0.07908   1.00
H2       0.42437    0.28666    0.12903   1.00
H2       0.43134    0.40605    0.06605   1.00
H2       0.39400    0.27795    0.10519   1.00
H2       0.42267    0.33365    0.07614   1.00
C6       0.49683    0.29296    0.10540   1.00
C6       0.32930    0.33831    0.07926   1.00
H2       0.54628    0.32942    0.11191   1.00
H2       0.31482    0.37452    0.08507   1.00
C6       0.48604    0.21968    0.10858   1.00
C6       0.29083    0.30923    0.05873   1.00
H2       0.50182    0.30383    0.08915   1.00
H2       0.30959    0.29687    0.09033   1.00
C6       0.48932    0.20418    0.13134   1.00
C6       0.30777    0.36674    0.04309   1.00
C6       0.41726    0.16422    0.09957   1.00
C6       0.30752    0.25649    0.04939   1.00
C6       0.54420    0.21522    0.09750   1.00
C6       0.21291    0.27266    0.06285   1.00
H2       0.53685    0.24308    0.13824   1.00
H2       0.29758    0.40543    0.04935   1.00
H2       0.44722    0.20233    0.13985   1.00
H2       0.36112    0.39196    0.03854   1.00
H2       0.48649    0.15497    0.13329   1.00
H2       0.27718    0.34653    0.02937   1.00
H2       0.41243    0.11386    0.10056   1.00
H2       0.27680    0.23297    0.03587   1.00
H2       0.37440    0.16201    0.10776   1.00
H2       0.36095    0.28063    0.04492   1.00
H2       0.41304    0.17473    0.08365   1.00
H2       0.29740    0.21616    0.06026   1.00
H2       0.59400    0.25296    0.10346   1.00
H2       0.19826    0.30793    0.06927   1.00
H2       0.53913    0.16499    0.09940   1.00
H2       0.18377    0.25182    0.04890   1.00
H2       0.54371    0.22435    0.08126   1.00
H2       0.19752    0.23054    0.07349   1.00
C4       0.70209    0.84158    0.70467   1.00
C4       0.64906    0.81184    0.71950   1.00
C3       0.72420    0.90720    0.69615   1.00
C3       0.61947    0.84836    0.72838   1.00
C3       0.73476    0.80500    0.69792   1.00
C3       0.62411    0.74301    0.72589   1.00
C2       0.81160    0.90322    0.67544   1.00
C2       0.53952    0.75067    0.74874   1.00
C3       0.77749    0.93733    0.68205   1.00
C3       0.56614    0.81873    0.74248   1.00
C3       0.78907    0.83764    0.68362   1.00
C3       0.56949    0.71460    0.74020   1.00
H1       0.70196    0.93529    0.69971   1.00
H1       0.63602    0.89810    0.72509   1.00
C5       0.71279    0.73757    0.70531   1.00
C5       0.65383    0.70460    0.71812   1.00
H1       0.79121    0.98491    0.67654   1.00
H1       0.54682    0.84771    0.74826   1.00
H1       0.81385    0.81345    0.67856   1.00
H1       0.55006    0.66568    0.74500   1.00
C6       0.75249    0.70244    0.69970   1.00
C6       0.62219    0.62971    0.72335   1.00
H2       0.80685    0.73881    0.70102   1.00
H2       0.56693    0.60554    0.72207   1.00
H2       0.74583    0.66428    0.71087   1.00
H2       0.63365    0.60221    0.71195   1.00
C6       0.73378    0.66837    0.67820   1.00
C6       0.64432    0.61700    0.74468   1.00
H2       0.73066    0.70325    0.66736   1.00
H2       0.64233    0.65187    0.75577   1.00
C6       0.78164    0.64398    0.66893   1.00
C6       0.60366    0.54313    0.75361   1.00
H2       0.68219    0.62454    0.67904   1.00
H2       0.69806    0.63147    0.74374   1.00
C6       0.85357    0.70487    0.66418   1.00
C6       0.52877    0.52256    0.75850   1.00
C6       0.78859    0.59337    0.68317   1.00
C6       0.60431    0.48986    0.73900   1.00
C6       0.75016    0.60665    0.64863   1.00
C6       0.63802    0.54106    0.77377   1.00
H2       0.85035    0.74212    0.65442   1.00
H2       0.52654    0.55980    0.76853   1.00
H2       0.88040    0.73098    0.67797   1.00
H2       0.50030    0.51888    0.74479   1.00
H2       0.88499    0.68780    0.65645   1.00
H2       0.50223    0.47300    0.76600   1.00
H2       0.81802    0.57295    0.67597   1.00
H2       0.58008    0.43937    0.74596   1.00
H2       0.81477    0.61840    0.69717   1.00
H2       0.57659    0.48589    0.72508   1.00
H2       0.73855    0.55069    0.68710   1.00
H2       0.65645    0.50392    0.73498   1.00
H2       0.74479    0.64046    0.63792   1.00
H2       0.63825    0.57734    0.78472   1.00
H2       0.78206    0.58900    0.64149   1.00
H2       0.61112    0.49049    0.78067   1.00
H2       0.69977    0.56224    0.65105   1.00
H2       0.69073    0.55380    0.77125   1.00
C4       0.13394    0.29914    0.70418   1.00
C4       0.15724    0.35365    0.71850   1.00
C3       0.14365    0.24221    0.70708   1.00
C3       0.18536    0.35163    0.73765   1.00
C3       0.09961    0.30084    0.68618   1.00
C3       0.15255    0.41278    0.71376   1.00
C2       0.08390    0.18726    0.67572   1.00
C2       0.20746    0.46526    0.74706   1.00
C3       0.11915    0.18776    0.69336   1.00
C3       0.21004    0.40580    0.75148   1.00
C3       0.07511    0.24418    0.67264   1.00
C3       0.17861    0.46700    0.72821   1.00
H1       0.16949    0.23849    0.71916   1.00
H1       0.18833    0.31044    0.74236   1.00
C5       0.09085    0.35815    0.68201   1.00
C5       0.12212    0.41655    0.69508   1.00
H1       0.12757    0.14806    0.69636   1.00
H1       0.22997    0.40131    0.76500   1.00
H1       0.05005    0.24331    0.65975   1.00
H1       0.17660    0.51006    0.72532   1.00
C6       0.04816    0.35597    0.66404   1.00
C6       0.12406    0.48222    0.68931   1.00
H2       0.00207    0.30610    0.66346   1.00
H2       0.17467    0.52505    0.69253   1.00
H2       0.02720    0.38949    0.66619   1.00
H2       0.12070    0.48661    0.67299   1.00
C6       0.08807    0.37416    0.64345   1.00
C6       0.06682    0.49103    0.69980   1.00
H2       0.11747    0.34794    0.64250   1.00
H2       0.06325    0.47700    0.71581   1.00
C6       0.04565    0.35899    0.62344   1.00
C6       0.07286    0.56291    0.69861   1.00
H2       0.12598    0.42846    0.64377   1.00
H2       0.01805    0.45368    0.69315   1.00
C6       -0.00206   0.28134    0.62015   1.00
C6       0.13550    0.61729    0.71060   1.00
C6       0.00269    0.39492    0.62326   1.00
C6       0.07736    0.58693    0.67637   1.00
C6       0.09580    0.38652    0.60523   1.00
C6       0.00812    0.55812    0.70832   1.00
H2       0.02660    0.25432    0.62053   1.00
H2       0.13442    0.60132    0.72629   1.00
H2       -0.04141   0.25935    0.63178   1.00
H2       0.18316    0.62634    0.70382   1.00
H2       -0.02784   0.27107    0.60551   1.00
H2       0.13661    0.66602    0.71086   1.00
H2       -0.02283   0.38806    0.60868   1.00
H2       0.07662    0.63472    0.67564   1.00
H2       -0.03663   0.37406    0.63493   1.00
H2       0.12447    0.59564    0.66924   1.00
H2       0.03489    0.44950    0.62597   1.00
H2       0.03456    0.54887    0.66749   1.00
H2       0.12697    0.36219    0.60453   1.00
H2       0.00291    0.54200    0.72414   1.00
H2       0.06850    0.37670    0.59086   1.00
H2       0.01016    0.60731    0.70796   1.00
H2       0.13002    0.44147    0.60647   1.00
H2       -0.03783   0.52145    0.70025   1.00
C4       0.16480    0.86586    0.70425   1.00
C4       0.19596    0.84261    0.71860   1.00
C3       0.09693    0.85329    0.70663   1.00
C3       0.16425    0.81158    0.73733   1.00
C3       0.20214    0.90308    0.68674   1.00
C3       0.26139    0.85039    0.71432   1.00
C2       0.10288    0.91571    0.67575   1.00
C2       0.25742    0.79256    0.74719   1.00
C3       0.06692    0.87769    0.69289   1.00
C3       0.19377    0.78697    0.75117   1.00
C3       0.16987    0.92736    0.67317   1.00
C3       0.28954    0.82430    0.72876   1.00
H1       0.06650    0.82535    0.71832   1.00
H1       0.11881    0.80630    0.74172   1.00
C5       0.26962    0.91485    0.68308   1.00
C5       0.29710    0.88379    0.69611   1.00
H1       0.01788    0.86713    0.69551   1.00
H1       0.16817    0.76485    0.76438   1.00
H1       0.19495    0.95442    0.66063   1.00
H1       0.33575    0.82845    0.72620   1.00
C6       0.31118    0.96042    0.66570   1.00
C6       0.36281    0.88518    0.69075   1.00
H2       0.30548    1.00543    0.66542   1.00
H2       0.35662    0.83496    0.69355   1.00
H2       0.36560    0.98289    0.66836   1.00
H2       0.37241    0.89075    0.67451   1.00
C6       0.29301    0.92296    0.64470   1.00
C6       0.42659    0.94262    0.70208   1.00
H2       0.23763    0.89204    0.64317   1.00
H2       0.41396    0.94376    0.71803   1.00
C6       0.32130    0.96798    0.62519   1.00
C6       0.49410    0.93954    0.70129   1.00
H2       0.31127    0.88651    0.64486   1.00
H2       0.43695    0.99160    0.69585   1.00
C6       0.28915    1.01383    0.62204   1.00
C6       0.48693    0.87648    0.71277   1.00
C6       0.39997    1.01325    0.62584   1.00
C6       0.51671    0.93861    0.67917   1.00
C6       0.30238    0.92018    0.60649   1.00
C6       0.55143    1.00416    0.71184   1.00
H2       0.23354    0.98347    0.62185   1.00
H2       0.46993    0.87504    0.72836   1.00
H2       0.30391    1.05164    0.63405   1.00
H2       0.45031    0.82909    0.70539   1.00
H2       0.30556    1.04144    0.60770   1.00
H2       0.53550    0.87731    0.71334   1.00
H2       0.41958    1.04073    0.61158   1.00
H2       0.56624    0.94140    0.67877   1.00
H2       0.41583    1.05107    0.63791   1.00
H2       0.48031    0.89180    0.67145   1.00
H2       0.42383    0.98234    0.62847   1.00
H2       0.52076    0.98174    0.67062   1.00
H2       0.24717    0.88751    0.60520   1.00
H2       0.53830    1.00691    0.72762   1.00
H2       0.32069    0.94933    0.59244   1.00
H2       0.59964    1.00413    0.71179   1.00
H2       0.32480    0.88740    0.60762   1.00
H2       0.55989    1.05046    0.70417   1.00
